[FBAN/FB4A;FBAV/378.0.0.18.112;FBBV/387353312;FBDM/{density=2.75,width=1080,height=2177};FBLC/ru_RU;FBRV/388515144;FBCR/UzMobile;FBMF/Xiaomi;FBBD/Redmi;FBPN/com.facebook.katana;FBDV/M2101K7BG;FBSV/12;FBOP/1;FBCA/arm64-v8a:;]
[FBAN/FB4A;FBAV/368.0.0.24.108;FBBV/371898012;FBDM/{density=2.75,width=1080,height=2130};FBLC/ru_RU;FBRV/374252804;FBCR/#ParMieru;FBMF/Xiaomi;FBBD/xiaomi;FBPN/com.facebook.katana;FBDV/Redmi Note 8T;FBSV/10;FBOP/1;FBCA/arm64-v8a:;]
[FBAN/FB4A;FBAV/377.0.0.22.107;FBBV/385537869;FBDM/{density=2.75,width=1080,height=2132};FBLC/ru_RU;FBRV/387781654;FBCR/Vodafone UA;FBMF/Xiaomi;FBBD/Redmi;FBPN/com.facebook.katana;FBDV/M2010J19SY;FBSV/10;FBOP/1;FBCA/arm64-v8a:;]
[FBAN/FB4A;FBAV/378.0.0.18.112;FBBV/387353235;FBDM/{density=2.0,width=720,height=1344};FBLC/ru_RU;FBRV/388642795;FBCR/Mobiuz;FBMF/Xiaomi;FBBD/xiaomi;FBPN/com.facebook.katana;FBDV/Redmi 6;FBSV/8.1.0;FBOP/1;FBCA/armeabi-v7a:armeabi;]
[FBAN/FB4A;FBAV/378.0.0.18.112;FBBV/387353308;FBDM/{density=2.0,width=720,height=1369};FBLC/ru_RU;FBRV/388642795;FBCR/Azercell;FBMF/Xiaomi;FBBD/Xiaomi;FBPN/com.facebook.katana;FBDV/Redmi 8;FBSV/10;FBOP/1;FBCA/arm64-v8a:;]
[FBAN/FB4A;FBAV/379.0.0.24.109;FBBV/389395417;FBDM/{density=2.75,width=1080,height=2168};FBLC/lv_LV;FBRV/0;FBCR/BITE_LV;FBMF/Xiaomi;FBBD/Redmi;FBPN/com.facebook.katana;FBDV/Redmi Note 9 Pro;FBSV/11;FBOP/1;FBCA/arm64-v8a:;]
[FBAN/FB4A;FBAV/380.0.0.29.109;FBBV/390885025;FBDM/{density=2.75,width=1080,height=2062};FBLC/ru_RU;FBRV/392634595;FBCR/A-Mobile;FBMF/Xiaomi;FBBD/xiaomi;FBPN/com.facebook.katana;FBDV/Redmi Note 6 Pro;FBSV/9;FBOP/1;FBCA/arm64-v8a:;]
[FBAN/FB4A;FBAV/380.0.0.29.109;FBBV/390885094;FBDM/{density=2.0,width=720,height=1369};FBLC/ru_RU;FBRV/392510433;FBCR/BAKCELL;FBMF/Xiaomi;FBBD/Xiaomi;FBPN/com.facebook.katana;FBDV/Redmi 8;FBSV/10;FBOP/1;FBCA/arm64-v8a:;]
[FBAN/FB4A;FBAV/380.0.0.29.109;FBBV/390885002;FBDM/{density=2.0,width=720,height=1344};FBLC/ru_RU;FBRV/392622549;FBCR/Beeline GE;FBMF/Xiaomi;FBBD/Xiaomi;FBPN/com.facebook.katana;FBDV/Redmi 5;FBSV/7.1.2;FBOP/1;FBCA/armeabi-v7a:armeabi;]
[FBAN/FB4A;FBAV/380.0.0.29.109;FBBV/390885099;FBDM/{density=2.75,width=1080,height=2166};FBLC/ru_RU;FBRV/392934305;FBCR/AQUAFON;FBMF/Xiaomi;FBBD/Xiaomi;FBPN/com.facebook.katana;FBDV/2109119DG;FBSV/12;FBOP/1;FBCA/arm64-v8a:;]
[FBAN/FB4A;FBAV/381.0.0.29.105;FBBV/392505018;FBDM/{density=2.75,width=1080,height=2177};FBLC/ru_RU;FBRV/0;FBCR/TELEMACH;FBMF/Xiaomi;FBBD/Redmi;FBPN/com.facebook.katana;FBDV/M2101K7AG;FBSV/11;FBOP/1;FBCA/arm64-v8a:;]
[FBAN/FB4A;FBAV/381.0.0.29.105;FBBV/392504981;FBDM/{density=2.75,width=1080,height=1920};FBLC/ru_RU;FBRV/393389191;FBCR/MAGTICOM;FBMF/Xiaomi;FBBD/Xiaomi;FBPN/com.facebook.katana;FBDV/MI MAX 2;FBSV/7.1.1;FBOP/1;FBCA/armeabi-v7a:armeabi;]
[FBAN/FB4A;FBAV/381.0.0.29.105;FBBV/392505018;FBDM/{density=2.75,width=1080,height=2110};FBLC/ru_RU;FBRV/0;FBCR/UMS;FBMF/Xiaomi;FBBD/Redmi;FBPN/com.facebook.katana;FBDV/M2003J15SC;FBSV/10;FBOP/1;FBCA/arm64-v8a:;]
[FBAN/FB4A;FBAV/381.0.0.29.105;FBBV/392505005;FBDM/{density=2.0,width=720,height=1449};FBLC/uk_UA;FBRV/394465687;FBCR/Vodafone UA;FBMF/Xiaomi;FBBD/Redmi;FBPN/com.facebook.katana;FBDV/M2006C3MNG;FBSV/10;FBOP/1;FBCA/armeabi-v7a:armeabi;]
Dalvik/2.1.0 (Linux; U; Android 11; 220333QAG Build/RKQ1.211001.001) [FBAN/Orca-Android;FBAV/378.0.0.25.106;FBPN/com.facebook.orca;FBLC/es_US;FBBV/397777638;FBCR/TELCEL;FBMF/Xiaomi;FBBD/Redmi;FBDV/220333QAG;FBSV/11;FBCA/arm64-v8a:null;FBDM/{density=2.0,width=720,height=1505};FB_FW/1;]
Navegador Dalvik/2.1.0 (Linux; U; Android 11; 220333QAG Build/RKQ1.211001.001) [FBAN/Orca-Android;FBAV/378.0.0.25.106;FBPN/com.facebook.orca;FBLC/es_US;FBBV/397777638;FBCR/TELCEL;FBMF/Xiaomi;FBBD/Redmi;FBDV/220333QAG;FBSV/11;FBCA/arm64-v8a:null;FBDM/{density=2.0,width=720,height=1505};FB_FW/1;]
Dalvik/2.1.0 (Linux; U; Android 10; Redmi Note 7 MIUI/V11.0.1.0.QFGEUXM) [FBAN/FB4A;FBAV/396.1.0.28.104;FBPN/com.facebook.katana;FBLC/tr_TR;FBBV/319214973;FBCR/Vodafone;FBMF/Xiaomi;FBBD/xiaomi;FBDV/Redmi Note 7;FBSV/10;FBCA/arm64-v8a:null;FBDM/{density=2.75,width=1080,height=2131};FB_FW/1;]
Dalvik/2.1.0 (Linux; U; Android 5; Moto Build/QP1A.244982.977) [FBAN/Orca-Android;FBAV/288.0.0.15.118;FBPN/com.facebook.orca;FBLC/pl_PL;FBBV/253310653;FBCR/PLAY (T-Mobile);FBMF/Xiaomi;FBBD/xiaomi;FBDV/Redmi Note 8T;FBSV/9;FBCA/arm64-v8a:null;FBDM/{density=2.75,width=1080,height=2130};FB_FW/1;FBBK/1;]
[FBAN/FB4A;FBAV/402.1.0.24.84;FBBV/447580902;FBDM/{density=2.0,width=720,height=1449};FBLC/cs_CZ;FBRV/448267329;FBCR/O2.CZ;FBMF/Xiaomi;FBBD/Redmi;FBPN/com.facebook.katana;FBDV/M2006C3MNG;FBSV/10;FBOP/1;FBCA/armeabi-v7a:armeabi;] Sou
Dalvik/2.1.0 (Linux; U; Android 10; M2006C3MNG MIUI/V12.0.14.0.QCSEUXM) [FBAN/Orca-Android;FBAV/396.0.0.14.82;FBPN/com.facebook.orca;FBLC/cs_CZ;FBBV/446475560;FBCR/O2.CZ;FBMF/Xiaomi;FBBD/Redmi;FBDV/M2006C3MNG;FBSV/10;FBCA/armeabi-v7a:armeabi;FBDM/{density=2.0,width=720,height=1449};FB_FW/1;]
[FBAN/EMA;FBAV/339.0.0.32.118;FBBV/323007073;FBDM/{density=3.375,width=1080,height=2130};FBLC/pt_PT;FBRV/324113571;FBCR/MEO;FBMF/Xiaomi;FBBD/xiaomi;FBPN/com.facebook.katana;FBDV/Redmi Note 7;FBSV/10;FBOP/1;FBCA/arm64-v8a:;]
Dalvik/2.1.0 (Linux; U; Android 11; 2201117SY Build/RP1A.200720.011) [FBAN/Orca-Android;FBAV/393.0.0.18.92;FBPN/com.facebook.orca;FBLC/es_ES;FBBV/440593596;FBCR/Digi.Mobil;FBMF/Xiaomi;FBBD/Redmi;FBDV/2201117SY;FBSV/11;FBCA/arm64-v8a:null;FBDM/{density=2.75,width=1080,height=2177};FB_FW/1;]
[FBAN/FB4A;FBAV/398.0.0.21.105;FBBV/440587431;FBDM/{density=2.75,width=1080,height=2177};FBLC/es_ES;FBRV/0;FBCR/Digi.Mobil;FBMF/Xiaomi;FBBD/Redmi;FBPN/com.facebook.katana;FBDV/2201117SY;FBSV/11;FBOP/1;FBCA/arm64-v8a:;]
Dalvik/2.1.0 (Linux; U; Android 9; Redmi Note 7 MIUI/V10.3.6.0.PFGEUXM) [FBAN/Orca-Android;FBAV/241.0.0.17.116;FBPN/com.facebook.orca;FBLC/es_ES;FBBV/182747450;FBCR/MASMOVIL;FBMF/Xiaomi;FBBD/xiaomi;FBDV/Redmi Note 7;FBSV/9;FBCA/arm64-v8a:null;FBDM/{density=2.75,width=1080,height=2130};FB_FW/1;] FBBK/1
[FBAN/FB4A;FBAV/65.0.0.42.81;FBBV/23239543;FBDM/{density=3.0,width=1080,height=1920};FBLC/pl_PL;FBCR/T-Mobile.pl;FBMF/Xiaomi;FBBD/xiaomi;FBPN/com.facebook.katana;FBDV/Redmi Note 4;FBSV/7.0;nullFBCA/armeabi-v7a:armeabi;]
[FBAN/FB4A;FBAV/86.0.0.19.69;FBBV/34022707;FBDM/{density=3.0,width=1080,height=1920};FBLC/en_GB;FBCR/Telenor;FBMF/Xiaomi;FBBD/xiaomi;FBPN/com.facebook.katana;FBDV/Redmi Note 4;FBSV/6.0.1;FBOP/1;FBCA/armeabi-v7a:armeabi;]
[FBAN/FB4A;FBAV/65.0.0.42.81;FBBV/23239543;FBDM/{density=2.0,width=720,height=1280};FBLC/es_ES;FBCR/TELCEL;FBMF/Xiaomi;FBBD/Xiaomi;FBPN/com.facebook.katana;FBDV/Redmi 4X;FBSV/6.0.1;nullFBCA/armeabi-v7a:armeabi;]
[FBAN/FB4A;FBAV/65.0.0.42.81;FBBV/23239543;FBDM/{density=3.0,width=1080,height=1920};FBLC/en_US;FBCR/Vodafone IN;FBMF/Xiaomi;FBBD/xiaomi;FBPN/com.facebook.katana;FBDV/Redmi Note 4;FBSV/6.0.1;nullFBCA/armeabi-v7a:armeabi;]
[FBAN/FB4A;FBAV/153.0.0.54.88;FBBV/84570982;FBDM/{density=2.0,width=720,height=1280};FBLC/pt_PT;FBRV/85070460;FBCR/;FBMF/Xiaomi;FBBD/Xiaomi;FBPN/com.facebook.katana;FBDV/Redmi 3;FBSV/5.1.1;FBOP/1;FBCA/armeabi-v7a:armeabi;]
[FBAN/FB4A;FBAV/153.0.0.54.88;FBBV/84570982;FBDM/{density=2.0,width=720,height=1280};FBLC/pt_BR;FBRV/85070460;FBCR/altice MEO;FBMF/Xiaomi;FBBD/Xiaomi;FBPN/com.facebook.katana;FBDV/Redmi 4;FBSV/6.0.1;FBOP/1;FBCA/armeabi-v7a:armeabi;]
[FBAN/FB4A;FBAV/153.0.0.54.88;FBBV/84570982;FBDM/{density=2.0,width=720,height=1280};FBLC/pt_BR;FBRV/85070460;FBCR/MOCHE;FBMF/Xiaomi;FBBD/Xiaomi;FBPN/com.facebook.katana;FBDV/Redmi 4X;FBSV/7.1.2;FBOP/1;FBCA/armeabi-v7a:armeabi;]
[FBAN/FB4A;FBAV/153.0.0.54.88;FBBV/84570982;FBDM/{density=2.0,width=720,height=1280};FBLC/pt_BR;FBRV/85070460;FBCR/altice MEO;FBMF/Xiaomi;FBBD/Xiaomi;FBPN/com.facebook.katana;FBDV/Redmi 3X;FBSV/6.0.1;FBOP/1;FBCA/armeabi-v7a:armeabi;]
[FBAN/FB4A;FBAV/260.0.0.42.118;FBBV/201518851;FBDM/{density=2.75,width=1080,height=2131};FBLC/it_IT;FBRV/202206671;FBCR/I TIM;FBMF/Xiaomi;FBBD/xiaomi;FBPN/com.facebook.katana;FBDV/Redmi Note 7;FBSV/9;FBOP/1;FBCA/arm64-v8a:;]
[FBAN/FB4A;FBAV/263.0.0.46.121;FBBV/205281674;FBDM/{density=2.0,width=720,height=1344};FBLC/hi_IN;FBRV/0;FBCR/Idea - Be Safe;FBMF/Xiaomi;FBBD/xiaomi;FBPN/com.facebook.katana;FBDV/Redmi 6A;FBSV/8.1.0;FBOP/1;FBCA/armeabi-v7a:armeabi;]
[FBAN/FB4A;FBAV/257.0.0.44.118;FBBV/197851403;FBDM/{density=2.75,width=1080,height=2150};FBLC/en_GB;FBRV/0;FBCR/Vodafone IN;FBMF/Xiaomi;FBBD/xiaomi;FBPN/com.facebook.katana;FBDV/Redmi 6 Pro;FBSV/8.1.0;FBOP/1;FBCA/armeabi-v7a:armeabi;]
[FBAN/FB4A;FBAV/182.0.0.46.77;FBBV/118539372;FBDM/{density=2.75,width=1080,height=2030};FBLC/en_US;FBRV/118725758;FBCR/airtel;FBMF/Xiaomi;FBBD/xiaomi;FBPN/com.facebook.katana;FBDV/Redmi Note 5;FBSV/7.1.2;FBOP/1;FBCA/armeabi-v7a:armeabi;]
[FBAN/FB4A;FBAV/268.1.0.54.121;FBBV/211681886;FBDM/{density=3.0,width=1080,height=1920};FBLC/uk_UA;FBRV/213212609;FBCR/Vodafone UA;FBMF/Xiaomi;FBBD/xiaomi;FBPN/com.facebook.katana;FBDV/Redmi Note 4;FBSV/7.0;FBOP/1;FBCA/armeabi-v7a:armeabi;]
[FBAN/FB4A;FBAV/258.0.0.34.119;FBBV/199294650;FBDM/{density=2.0,width=720,height=1344};FBLC/en_GB;FBRV/0;FBCR/MTN;FBMF/Xiaomi;FBBD/xiaomi;FBPN/com.facebook.katana;FBDV/Redmi 6A;FBSV/8.1.0;FBOP/1;FBCA/armeabi-v7a:armeabi;]
[FBAN/FB4A;FBAV/271.0.0.55.109;FBBV/215365668;FBDM/{density=2.0,width=720,height=1280};FBLC/en_US;FBRV/0;FBCR/airtel;FBMF/Xiaomi;FBBD/Xiaomi;FBPN/com.facebook.katana;FBDV/Redmi 5A;FBSV/8.1.0;FBOP/1;FBCA/armeabi-v7a:armeabi;]
[FBAN/FB4A;FBAV/266.0.0.64.124;FBBV/209629362;FBDM/{density=2.75,width=1080,height=2150};FBLC/en_GB;FBRV/0;FBCR/Ooredoo;FBMF/Xiaomi;FBBD/xiaomi;FBPN/com.facebook.katana;FBDV/MI PLAY;FBSV/8.1.0;FBOP/1;FBCA/armeabi-v7a:armeabi;]
[FBAN/FB4A;FBAV/263.0.0.46.121;FBBV/205281674;FBDM/{density=2.25,width=720,height=1332};FBLC/en_GB;FBRV/0;FBCR/airtel;FBMF/Xiaomi;FBBD/xiaomi;FBPN/com.facebook.katana;FBDV/Redmi 6A;FBSV/8.1.0;FBOP/1;FBCA/armeabi-v7a:armeabi;]
[FBAN/FB4A;FBAV/254.0.0.37.125;FBBV/194387493;FBDM/{density=2.0,width=720,height=1344};FBLC/en_US;FBRV/0;FBCR/airtel;FBMF/Xiaomi;FBBD/xiaomi;FBPN/com.facebook.katana;FBDV/Redmi Y2;FBSV/8.1.0;FBOP/1;FBCA/armeabi-v7a:armeabi;]
[FBAN/FB4A;FBAV/276.0.0.44.127;FBBV/225129387;FBDM/{density=2.75,width=1080,height=2030};FBLC/uk_UA;FBRV/227809097;FBCR/Vodafone UA;FBMF/Xiaomi;FBBD/xiaomi;FBPN/com.facebook.katana;FBDV/Redmi Note 5;FBSV/9;FBOP/1;FBCA/arm64-v8a:;]
[FBAN/FB4A;FBAV/279.0.0.43.120;FBBV/231021012;FBDM/{density=2.0,width=720,height=1344};FBLC/en_US;FBRV/232621700;FBCR/ZZ;FBMF/Xiaomi;FBBD/Xiaomi;FBPN/com.facebook.katana;FBDV/Redmi 7A;FBSV/9;FBOP/1;FBCA/armeabi-v7a:armeabi;]
[FBAN/FB4A;FBAV/264.0.0.44.111;FBBV/206636728;FBDM/{density=2.75,width=1080,height=2134};FBLC/ru_RU;FBRV/207716779;FBCR/Vodafone UA;FBMF/Xiaomi;FBBD/Redmi;FBPN/com.facebook.katana;FBDV/Redmi Note 8 Pro;FBSV/9;FBOP/1;FBCA/arm64-v8a:;]
[FBAN/FB4A;FBAV/261.0.0.52.126;FBBV/202681550;FBDM/{density=2.0,width=720,height=1280};FBLC/en_GB;FBRV/0;FBCR/airtel;FBMF/Xiaomi;FBBD/Xiaomi;FBPN/com.facebook.katana;FBDV/Redmi 5A;FBSV/7.1.2;FBOP/1;FBCA/armeabi-v7a:armeabi;]
[FBAN/FB4A;FBAV/255.0.0.33.121;FBBV/195354855;FBDM/{density=2.0,width=720,height=1344};FBLC/en_US;FBRV/0;FBCR/Idea;FBMF/Xiaomi;FBBD/Xiaomi;FBPN/com.facebook.katana;FBDV/Redmi 5;FBSV/8.1.0;FBOP/1;FBCA/armeabi-v7a:armeabi;]
Dalvik/2.1.0 (Linux; U; Android 10.0.0; Redmi 5 Plus Build/TP1A.839948.536) [FBAN/FB4A;FBAV/429.0.0.27.114;FBBV/444810901;FBDM/{density=2.75,width=1080,height=2030};FBLC/en_US;FBRV/444810901;FBCR/T-Mobile CZ;FBMF/Xiaomi;FBBD/xiaomi;FBPN/com.facebook.katana;FBDV/Redmi 5 Plus;FBSV/8.1.0;FBOP/1;FBCA/armeabi-v7a:armeabi;]
Mozilla/5.0 (Linux; Android 7.0; SM-G920F Build/NRD90M; wv) AppleWebKit/537.36 (KHTML, like Gecko) Version/4.0 Chrome/58.0.3029.83 Mobile Safari/537.36 [FBAN/FB4A;FBAV/128.0.0.26.68;FBBV/61451353;FBDM/{density=4.0,width=1440,height=2560};FBLC/ru_RU;FBRV/61451353;FB_FW/2;FBCR/MTS RUS;FBMF/samsung;FBBD/samsung;FBPN/com.facebook.katana;FBDV/SM-G920F;FBSV/7.0;FBOP/19;FBCA/armeabi-v7a:armeabi;]
[FBAN/FB4A;FBAV/76.0.0.24.67;FBBV/29581442;FBDM/{density=2.0,width=720,height=1184};FBLC/en_US;FBCR/vodafone GR;FBMF/HTC;FBBD/htc;FBPN/com.facebook.katana;FBDV/HTC Desire 816 dual sim;FBSV/5.0.2;FBOP/19;FBCA/armeabi-v7a:armeabi;]
[FBAN/FB4A;FBAV/59.0.0.15.313;FBBV/20097171;FBDM/{density=1.5,width=480,height=800};FBLC/es_ES;FBCR/TIGO;FBMF/Elite 4.0S;FBBD/Elite 4.0S;FBPN/com.facebook.katana;FBDV/Elite 4.0S;FBSV/6.0;nullFBCA/armeabi-v7a:armeabi;]
MYUA = f'Davik/2.1.0 (Linux; U; Android {str(android_version)}.0.0; {str(gtt)} Build/{str(gttt)} [FBAN/FB4A;FBAV/{str(application_version)};FBBV/{str(application_version_code)};FBDM/'+'{density=5.5,width=720,height=1280};'+f'FBLC/en_US;FBCR/{str(SIMS)};FBMF/HTC;FBBD/htc;FBPN/{str(fbks)};FBDV/{str(MODELS)};FBSV/5.0.2;FBOP/19;FBCA/armeabi-v7a:armeabi;]'
[FBAN/FB4A;FBAV/86.0.0.19.69;FBBV/34022701;FBDM/{density=1.5,width=480,height=786};FBLC/es_LA;FBCR/TELCEL;FBMF/LGE;FBBD/lge;FBPN/com.facebook.katana;FBDV/LG-H320;FBSV/5.0.1;FBOP/19;FBCA/armeabi-v7a:armeabi;]
[FBAN/FB4A;FBAV/81.0.0.22.70;FBBV/31880433;FBDM/{density=1.5,width=540,height=960};FBLC/en_US;FBCR/MTS;FBMF/samsung;FBBD/samsung;FBPN/com.facebook.katana;FBDV/GT-I9195;FBSV/4.4.2;FBOP/1;FBCA/armeabi-v7a:armeabi;]
[FBAN/FB4A;FBAV/79.0.0.18.71;FBBV/31009847;FBDM/{density=1.5,width=480,height=854};FBLC/es_LA;FBCR/BITEL;FBMF/HUAWEI;FBBD/HUAWEI;FBPN/com.facebook.katana;FBDV/HUAWEI LUA-L21;FBSV/5.1;FBOP/1;FBCA/armeabi-v7a:armeabi;]
[FBAN/FB4A;FBAV/61.0.0.15.69;FBBV/20748110;FBDM/{density=2.0,width=720,height=1184};FBLC/es_LA;FBCR/;FBMF/HUAWEI;FBBD/HUAWEI;FBPN/com.facebook.katana;FBDV/HUAWEI TAG-L03;FBSV/5.1;nullFBCA/armeabi-v7a:armeabi;]
[FBAN/FB4A;FBAV/70.0.0.22.83;FBBV/26502156;FBDM/{density=1.0,width=1280,height=800};FBLC/fr_FR;FBCR/;FBMF/samsung;FBBD/samsung;FBPN/com.facebook.katana;FBDV/SM-T530;FBSV/5.0.2;FBOP/1;FBCA/armeabi-v7a:armeabi;]
[FBAN/FB4A;FBAV/75.0.0.23.69;FBBV/29142836;FBDM/{density=1.5,width=540,height=960};FBLC/en_US;FBCR/AREEBA;FBMF/samsung;FBBD/samsung;FBPN/com.facebook.katana;FBDV/SM-J200F;FBSV/5.1.1;FBOP/19;FBCA/armeabi-v7a:armeabi;]
[FBAN/FB4A;FBAV/83.0.0.0.39;FBBV/32101960;FBDM/{density=1.5,width=480,height=854};FBLC/es_LA;FBCR/Movistar;FBMF/HUAWEI;FBBD/HUAWEI;FBPN/com.facebook.katana;FBDV/HUAWEI Y520-U33;FBSV/4.4.2;FBOP/1;FBCA/armeabi-v7a:armeabi;]
[FBAN/FB4A;FBAV/81.0.0.22.70;FBBV/31880455;FBDM/{density=2.0,width=720,height=1280};FBLC/es_LA;FBCR/Boost Mobile;FBMF/samsung;FBBD/samsung;FBPN/com.facebook.katana;FBDV/SPH-L710T;FBSV/4.4.2;FBOP/1;FBCA/armeabi-v7a:armeabi;]
[FBAN/FB4A;FBAV/66.0.0.33.73;FBBV/23966353;FBDM/{density=1.5,width=480,height=800};FBLC/es_LA;FBCR/TELCEL;FBMF/samsung;FBBD/samsung;FBPN/com.facebook.katana;FBDV/SM-G313ML;FBSV/4.4.2;FBOP/1;FBCA/armeabi-v7a:armeabi;]
[FBAN/FB4A;FBAV/70.0.0.22.83;FBBV/26502160;FBDM/{density=1.5,width=540,height=960};FBLC/en_US;FBCR/DIALOG;FBMF/samsung;FBBD/samsung;FBPN/com.facebook.katana;FBDV/SM-J200G;FBSV/5.1.1;FBOP/1;FBCA/armeabi-v7a:armeabi;]
[FBAN/FB4A;FBAV/69.0.0.26.76;FBBV/25862460;FBDM/{density=1.5,width=540,height=888};FBLC/es_LA;FBCR/AT&amp-T;FBMF/motorola;FBBD/motorola;FBPN/com.facebook.katana;FBDV/XT1021;FBSV/4.4.4;FBOP/1;FBCA/armeabi-v7a:armeabi;]
[FBAN/FB4A;FBAV/169.0.0.46.94;FBBV/104748689;FBDM/{density=2.625,width=1080,height=1920};FBLC/en_US;FBRV/104800574;FBCR/AT&amp-T;FBMF/samsung;FBBD/samsung;FBPN/com.facebook.katana;FBDV/SAMSUNG-SM-N920A;FBSV/7.0;FBOP/19;FBCA/armeabi-v7a:armeabi;]
[FBAN/FB4A;FBAV/83.0.0.20.71;FBBV/32723414;FBDM/{density=1.5,width=480,height=800};FBLC/ar_AR;FBCR/KOREK;FBMF/samsung;FBBD/samsung;FBPN/com.facebook.katana;FBDV/GT-I9060I;FBSV/4.4.4;FBOP/1;FBCA/armeabi-v7a:armeabi;]
[FBAN/FB4A;FBAV/81.0.0.22.70;FBBV/31880433;FBDM/{density=1.5,width=480,height=800};FBLC/es_LA;FBCR/Movistar;FBMF/samsung;FBBD/samsung;FBPN/com.facebook.katana;FBDV/SM-G316M;FBSV/4.4.4;FBOP/1;FBCA/armeabi-v7a:armeabi;]
[FBAN/FB4A;FBAV/86.0.0.19.69;FBBV/34022659;FBDM/{density=1.5,width=540,height=960};FBLC/es_LA;FBCR/TELCEL;FBMF/samsung;FBBD/samsung;FBPN/com.facebook.katana;FBDV/SM-G531H;FBSV/5.1.1;FBOP/1;FBCA/armeabi-v7a:armeabi;]
[FBAN/FB4A;FBAV/82.0.0.23.70;FBBV/32429830;FBDM/{density=1.5,width=540,height=960};FBLC/fr_FR;FBCR/MTN-CG;FBMF/HOTWAV;FBBD/HOTWAV;FBPN/com.facebook.katana;FBDV/Venus X1;FBSV/4.4.2;FBOP/1;FBCA/armeabi-v7a:armeabi;]
[FBAN/FB4A;FBAV/82.0.0.20.70;FBBV/32367061;FBDM/{density=1.5,width=854,height=480};FBLC/es_LA;FBCR/OUI;FBMF/LAVA;FBBD/Lava;FBPN/com.facebook.katana;FBDV/iris702;FBSV/6.0;FBOP/1;FBCA/armeabi-v7a:armeabi;]
[FBAN/FB4A;FBAV/61.0.0.15.69;FBBV/20748118;FBDM/{density=3.0,width=1080,height=1920};FBLC/sv_SE;FBCR/Telia;FBMF/samsung;FBBD/samsung;FBPN/com.facebook.katana;FBDV/SM-G900F;FBSV/5.0;nullFBCA/armeabi-v7a:armeabi;]
[FBAN/FB4A;FBAV/86.0.0.19.69;FBBV/34022701;FBDM/{density=1.5,width=540,height=888};FBLC/es_LA;FBCR/TELCEL;FBMF/kyocera;FBBD/kyocera;FBPN/com.facebook.katana;FBDV/C6740N;FBSV/5.1;FBOP/19;FBCA/armeabi-v7a:armeabi;]
[FBAN/FB4A;FBAV/67.0.0.21.154;FBBV/24782425;FBDM/{density=1.5,width=540,height=960};FBLC/fr_FR;FBCR/Orange;FBMF/samsung;FBBD/samsung;FBPN/com.facebook.katana;FBDV/SM-G530H;FBSV/4.4.4;FBOP/1;FBCA/armeabi-v7a:armeabi;]
[FBAN/FB4A;FBAV/83.0.0.20.71;FBBV/32723423;FBDM/{density=1.5,width=480,height=800};FBLC/it_IT;FBCR/vodafone IT;FBMF/MEDIACOM;FBBD/MTK-6580M;FBPN/com.facebook.katana;FBDV/M-PPxB400;FBSV/6.0;FBOP/1;FBCA/armeabi-v7a:armeabi;]
[FBAN/FB4A;FBAV/74.0.0.21.69;FBBV/28674189;FBDM/{density=1.3312501,width=800,height=1212};FBLC/es_LA;FBCR/;FBMF/LGE;FBBD/lge;FBPN/com.facebook.katana;FBDV/LG-V400;FBSV/4.4.2;FBOP/1;FBCA/armeabi-v7a:armeabi;]
[FBAN/FB4A;FBAV/87.0.0.17.79;FBBV/34592834;FBDM/{density=1.5,width=480,height=854};FBLC/es_LA;FBCR/Movistar;FBMF/ZUUM;FBBD/ZUUM;FBPN/com.facebook.katana;FBDV/MAGNO;FBSV/7.0;FBOP/1;FBCA/armeabi-v7a:armeabi;]
[FBAN/FB4A;FBAV/75.0.0.23.69;FBBV/29142808;FBDM/{density=1.0,width=600,height=1024};FBLC/es_LA;FBCR/;FBMF/samsung;FBBD/samsung;FBPN/com.facebook.katana;FBDV/SM-T210R;FBSV/4.4.2;FBOP/1;FBCA/armeabi-v7a:armeabi;]
[FBAN/FB4A;FBAV/83.0.0.20.71;FBBV/32723413;FBDM/{density=1.5,width=480,height=854};FBLC/es_LA;FBCR/;FBMF/ZTE;FBBD/ZTE;FBPN/com.facebook.katana;FBDV/BLADE L7;FBSV/6.0;FBOP/1;FBCA/armeabi-v7a:armeabi;]
[FBAN/FB4A;FBAV/87.0.0.3.78;FBBV/34180696;FBDM/{density=2.0,width=720,height=1280};FBLC/es_LA;FBCR/Claro AR;FBMF/samsung;FBBD/samsung;FBPN/com.facebook.katana;FBDV/SM-J320M;FBSV/5.1.1;FBOP/1;FBCA/armeabi-v7a:armeabi;]
[FBAN/FB4A;FBAV/77.0.0.20.66;FBBV/30034644;FBDM/{density=2.0,width=720,height=1204};FBLC/en_US;FBCR/LoneStar;FBMF/TECNO;FBBD/TECNO;FBPN/com.facebook.katana;FBDV/TECNO-J8;FBSV/5.1;FBOP/1;FBCA/armeabi-v7a:armeabi;]
[FBAN/FB4A;FBAV/86.0.0.19.69;FBBV/34022666;FBDM/{density=2.0,width=720,height=1280};FBLC/fr_FR;FBCR/;FBMF/condor;FBBD/condor;FBPN/com.facebook.katana;FBDV/PGN605;FBSV/5.1;FBOP/1;FBCA/armeabi-v7a:armeabi;]
[FBAN/FB4A;FBAV/142.0.0.29.92;FBBV/72571763;FBDM/{density=1.5,width=480,height=800};FBLC/fr_FR;FBRV/72870924;FBCR/Djezzy;FBMF/samsung;FBBD/samsung;FBPN/com.facebook.katana;FBDV/SM-J120H;FBSV/5.1.1;FBOP/19;FBCA/armeabi-v7a:armeabi;]
[FBAN/FB4A;FBAV/59.0.0.0.177;FBBV/19340254;FBDM/{density=1.5,width=540,height=960};FBLC/es_ES;FBCR/Claro;FBMF/LOGIC;FBBD/LOGIC;FBPN/com.facebook.katana;FBDV/LOGIC X5.5T;FBSV/5.1;nullFBCA/armeabi-v7a:armeabi;]
[FBAN/FB4A;FBAV/64.0.0.52.76;FBBV/22754206;FBDM/{density=1.5,width=540,height=888};FBLC/es_LA;FBCR/AT&amp-T;FBMF/motorola;FBBD/motorola;FBPN/com.facebook.katana;FBDV/MotoE2;FBSV/5.1;nullFBCA/armeabi-v7a:armeabi;]
[FBAN/FB4A;FBAV/77.0.0.20.66;FBBV/30034615;FBDM/{density=1.5,width=480,height=800};FBLC/en_GB;FBCR/MTML;FBMF/samsung;FBBD/samsung;FBPN/com.facebook.katana;FBDV/SM-J110H;FBSV/4.4.4;FBOP/1;FBCA/armeabi-v7a:armeabi;]
[FBAN/FB4A;FBAV/78.0.0.16.67;FBBV/30529747;FBDM/{density=3.0,width=1080,height=1776};FBLC/en_US;FBCR/;FBMF/HTC;FBBD/htc;FBPN/com.facebook.katana;FBDV/HTC One_E8;FBSV/4.4.2;FBOP/1;FBCA/armeabi-v7a:armeabi;]
[FBAN/FB4A;FBAV/77.0.0.20.66;FBBV/30034644;FBDM/{density=3.0,width=1080,height=1806};FBLC/en_US;FBCR/TIGO;FBMF/TECNO;FBBD/TECNO;FBPN/com.facebook.katana;FBDV/Phantom6;FBSV/6.0;FBOP/1;FBCA/armeabi-v7a:armeabi;]
[FBAN/FB4A;FBAV/60.0.0.16.76;FBBV/20454115;FBDM/{density=1.5,width=480,height=800};FBLC/en_US;FBCR/Gamcel;FBMF/Itel;FBBD/Itel;FBPN/com.facebook.katana;FBDV/itel it1408;FBSV/5.1;nullFBCA/armeabi-v7a:armeabi;]
[FBAN/FB4A;FBAV/65.0.0.42.81;FBBV/23239444;FBDM/{density=1.5,width=720,height=1208};FBLC/en_US;FBCR/MPT;FBMF/Sony;FBBD/Sony;FBPN/com.facebook.katana;FBDV/D2502;FBSV/5.1.1;nullFBCA/armeabi-v7a:armeabi;]
[FBAN/FB4A;FBAV/70.0.0.22.83;FBBV/26502135;FBDM/{density=1.0,width=800,height=1232};FBLC/es_LA;FBCR/;FBMF/ECS;FBBD/JP;FBPN/com.facebook.katana;FBDV/TR10CS1;FBSV/4.4.2;FBOP/1;FBCA/x86:armeabi-v7a;]
[FBAN/FB4A;FBAV/71.0.0.17.73;FBBV/27002204;FBDM/{density=1.5,width=480,height=854};FBLC/en_US;FBCR/Airtel;FBMF/itel;FBBD/Itel;FBPN/com.facebook.katana;FBDV/itel it1508;FBSV/5.1;FBOP/1;FBCA/armeabi-v7a:armeabi;]
[FBAN/FB4A;FBAV/167.0.0.33.94;FBBV/101783969;FBDM/{density=2.0,width=720,height=1280};FBLC/en_GB;FBRV/0;FBCR/StarHub Mobile;FBMF/OPPO;FBBD/OPPO;FBPN/com.facebook.katana;FBDV/A37f;FBSV/5.1.1;FBOP/1;FBCA/armeabi-v7a:armeabi;]
[FBAN/FB4A;FBAV/63.0.0.37.81;FBBV/21778670;FBDM/{density=1.5,width=480,height=854};FBLC/en_US;FBCR/MPT;FBMF/OPPO;FBBD/OPPO;FBPN/com.facebook.katana;FBDV/1201;FBSV/5.1;nullFBCA/armeabi-v7a:armeabi;]
[FBAN/FB4A;FBAV/66.0.0.0.85;FBBV/23262261;FBDM/{density=1.5,width=480,height=854};FBLC/en_US;FBCR/MTN Cameroon;FBMF/Royal;FBBD/Royal;FBPN/com.facebook.katana;FBDV/Royal R2;FBSV/5.1;FBOP/1;FBCA/armeabi-v7a:armeabi;]
[FBAN/FB4A;FBAV/77.0.0.20.66;FBBV/30034644;FBDM/{density=2.0,width=720,height=1280};FBLC/en_US;FBCR/MTN NG;FBMF/TECNO;FBBD/TECNO;FBPN/com.facebook.katana;FBDV/TECNO-L8Plus;FBSV/5.1;FBOP/1;FBCA/armeabi-v7a:armeabi;]
[FBAN/FB4A;FBAV/81.0.0.22.70;FBBV/31880433;FBDM/{density=1.5,width=480,height=800};FBLC/pt_BR;FBCR/CLARO BR;FBMF/LGE;FBBD/lge;FBPN/com.facebook.katana;FBDV/LG-H222;FBSV/4.4.2;FBOP/1;FBCA/armeabi-v7a:armeabi;]
[FBAN/FB4A;FBAV/79.0.0.18.71;FBBV/31009779;FBDM/{density=1.5,width=480,height=792};FBLC/es_LA;FBCR/;FBMF/LGE;FBBD/lge;FBPN/com.facebook.katana;FBDV/LG-M153;FBSV/6.0.1;FBOP/1;FBCA/armeabi-v7a:armeabi;]
[FBAN/FB4A;FBAV/85.0.0.15.70;FBBV/33678595;FBDM/{density=1.5,width=540,height=960};FBLC/es_LA;FBCR/TELCEL;FBMF/samsung;FBBD/samsung;FBPN/com.facebook.katana;FBDV/SM-G532M;FBSV/6.0.1;FBOP/1;FBCA/armeabi-v7a:armeabi;]
[FBAN/FB4A;FBAV/64.0.0.52.76;FBBV/22754145;FBDM/{density=1.5,width=480,height=854};FBLC/es_ES;FBCR/TELCEL GSM;FBMF/alps;FBBD/alps;FBPN/com.facebook.katana;FBDV/M4 SS1060;FBSV/4.2.2;nullFBCA/armeabi-v7a:armeabi;]
[FBAN/FB4A;FBAV/77.0.0.20.66;FBBV/30034644;FBDM/{density=4.0,width=1440,height=2560};FBLC/sv_SE;FBCR/Telia;FBMF/samsung;FBBD/samsung;FBPN/com.facebook.katana;FBDV/SM-G925F;FBSV/6.0.1;FBOP/19;FBCA/armeabi-v7a:armeabi;]
[FBAN/FB4A;FBAV/144.0.0.27.91;FBBV/74024807;FBDM/{density=3.0,width=1080,height=1776};FBLC/en_US;FBRV/74503935;FBCR/Verizon Wireless;FBMF/motorola;FBBD/motorola;FBPN/com.facebook.katana;FBDV/XT1710-02;FBSV/7.1.1;FBOP/1;FBCA/armeabi-v7a:armeabi;]
[FBAN/FB4A;FBAV/73.0.0.18.66;FBBV/28132076;FBDM/{density=1.5,width=480,height=854};FBLC/fr_FR;FBCR/Orange Cm;FBMF/TECNO;FBBD/TECNO;FBPN/com.facebook.katana;FBDV/TECNO-W3;FBSV/6.0;FBOP/1;FBCA/armeabi-v7a:armeabi;]
[FBAN/FB4A;FBAV/79.0.0.18.71;FBBV/31009842;FBDM/{density=1.3312501,width=800,height=1216};FBLC/en_US;FBCR/;FBMF/LENOVO;FBBD/Lenovo;FBPN/com.facebook.katana;FBDV/Lenovo TAB 2 A8-50LC;FBSV/5.1;FBOP/1;FBCA/armeabi-v7a:armeabi;]
[FBAN/FB4A;FBAV/79.0.0.0.52;FBBV/30370547;FBDM/{density=1.5,width=480,height=854};FBLC/es_ES;FBCR/TIGO;FBMF/verykool;FBBD/verykool;FBPN/com.facebook.katana;FBDV/verykoolS5004;FBSV/4.4.2;FBOP/1;FBCA/armeabi-v7a:armeabi;]
[FBAN/FB4A;FBAV/71.0.0.0.31;FBBV/26039933;FBDM/{density=2.0,width=720,height=1280};FBLC/ar_AR;FBCR/TUNISIE TELECOM;FBMF/Cellcom;FBBD/EVERTEK;FBPN/com.facebook.katana;FBDV/EverMiracle S;FBSV/5.1;FBOP/1;FBCA/armeabi-v7a:armeabi;]
[FBAN/FB4A;FBAV/59.0.0.15.313;FBBV/20097173;FBDM/{density=1.5,width=480,height=800};FBLC/en_US;FBCR/Vip MK;FBMF/TCL;FBBD/TCL;FBPN/com.facebook.katana;FBDV/4013X;FBSV/4.4.2;nullFBCA/armeabi-v7a:armeabi;]
[FBAN/FB4A;FBAV/81.0.0.22.70;FBBV/31880433;FBDM/{density=1.5,width=540,height=960};FBLC/en_US;FBCR/;FBMF/samsung;FBBD/samsung;FBPN/com.facebook.katana;FBDV/GT-I9195;FBSV/4.4.2;FBOP/1;FBCA/armeabi-v7a:armeabi;]
[FBAN/FB4A;FBAV/85.0.0.15.70;FBBV/33678624;FBDM/{density=1.5,width=480,height=854};FBLC/it_IT;FBCR/;FBMF/WIKO;FBBD/WIKO;FBPN/com.facebook.katana;FBDV/LENNY2;FBSV/5.1;FBOP/1;FBCA/armeabi-v7a:armeabi;]
[FBAN/FB4A;FBAV/76.0.0.24.67;FBBV/29581438;FBDM/{density=1.5,width=540,height=960};FBLC/pt_BR;FBCR/CLARO BR;FBMF/samsung;FBBD/samsung;FBPN/com.facebook.katana;FBDV/SM-G531H;FBSV/5.1.1;FBOP/1;FBCA/armeabi-v7a:armeabi;]
[FBAN/FB4A;FBAV/88.0.0.22.76;FBBV/35266889;FBDM/{density=1.5,width=480,height=800};FBLC/fr_FR;FBCR/TUNTEL;FBMF/HUAWEI;FBBD/HUAWEI;FBPN/com.facebook.katana;FBDV/HUAWEI Y336-U02;FBSV/4.4.2;FBOP/1;FBCA/armeabi-v7a:armeabi;]
[FBAN/FB4A;FBAV/64.0.0.52.76;FBBV/22754206;FBDM/{density=1.5,width=540,height=960};FBLC/pt_BR;FBCR/TIM 62;FBMF/LGE;FBBD/lge;FBPN/com.facebook.katana;FBDV/LG-D410;FBSV/5.0.2;nullFBCA/armeabi-v7a:armeabi;]
[FBAN/FB4A;FBAV/75.0.0.23.69;FBBV/29142893;FBDM/{density=1.3312501,width=800,height=1216};FBLC/hr_HR;FBCR/;FBMF/TCL;FBBD/TCL;FBPN/com.facebook.katana;FBDV/8079;FBSV/5.0.1;FBOP/19;FBCA/armeabi-v7a:armeabi;]
[FBAN/FB4A;FBAV/83.0.0.20.71;FBBV/32723413;FBDM/{density=1.5,width=480,height=800};FBLC/en_US;FBCR/MetroPCS;FBMF/samsung;FBBD/samsung;FBPN/com.facebook.katana;FBDV/SGH-T599N;FBSV/4.1.2;FBOP/1;FBCA/armeabi-v7a:armeabi;]
[FBAN/FB4A;FBAV/77.0.0.20.66;FBBV/30034642;FBDM/{density=2.0,width=720,height=1188};FBLC/ru_RU;FBCR/GCELL;FBMF/LGE;FBBD/lge;FBPN/com.facebook.katana;FBDV/LG-D724;FBSV/5.0.2;FBOP/1;FBCA/armeabi-v7a:armeabi;]
[FBAN/FB4A;FBAV/80.0.0.21.65;FBBV/31390050;FBDM/{density=2.0,width=720,height=1184};FBLC/sv_SE;FBCR/halebop;FBMF/HUAWEI;FBBD/HUAWEI;FBPN/com.facebook.katana;FBDV/HUAWEI LYO-L21;FBSV/5.1;FBOP/9;FBCA/armeabi-v7a:armeabi;]
[FBAN/FB4A;FBAV/83.0.0.20.71;FBBV/32723422;FBDM/{density=2.0,width=720,height=1184};FBLC/hr_HR;FBCR/m:tel;FBMF/HTC;FBBD/htc;FBPN/com.facebook.katana;FBDV/HTC Desire 816;FBSV/6.0;FBOP/19;FBCA/armeabi-v7a:armeabi;]
[FBAN/FB4A;FBAV/83.0.0.20.71;FBBV/32723423;FBDM/{density=3.0,width=1080,height=1920};FBLC/en_US;FBCR/mt:s;FBMF/samsung;FBBD/samsung;FBPN/com.facebook.katana;FBDV/SM-G900F;FBSV/6.0.1;FBOP/1;FBCA/armeabi-v7a:armeabi;]
[FBAN/FB4A;FBAV/82.0.0.23.70;FBBV/32429874;FBDM/{density=1.5,width=480,height=800};FBLC/es_LA;FBCR/TIGO;FBMF/samsung;FBBD/samsung;FBPN/com.facebook.katana;FBDV/SM-J111M;FBSV/5.1.1;FBOP/19;FBCA/armeabi-v7a:armeabi;]
[FBAN/FB4A;FBAV/166.0.0.45.95;FBBV/100498536;FBDM/{density=2.0,width=720,height=1208};FBLC/it_IT;FBRV/0;FBCR/I TIM;FBMF/HUAWEI;FBBD/Huawei;FBPN/com.facebook.katana;FBDV/ALE-L21;FBSV/6.0;FBOP/19;FBCA/armeabi-v7a:armeabi;]
🙂[FBAN/FB4A;FBAV/81.0.0.22.70;FBBV/31880428;FBDM/{density=1.0,width=320,height=480};FBLC/es_LA;FBCR/TELCEL;FBMF/LGE;FBBD/lge;FBPN/com.facebook.katana;FBDV/LG-X130g;FBSV/4.4.2;FBOP/1;FBCA/armeabi-v7a:armeabi;]
[FBAN/FB4A;FBAV/82.0.0.23.70;FBBV/32429824;FBDM/{density=1.5,width=480,height=854};FBLC/it_IT;FBCR/vodafone IT;FBMF/i-INN;FBBD/i-INN;FBPN/com.facebook.katana;FBDV/SQUARE;FBSV/4.4.2;FBOP/1;FBCA/armeabi-v7a:armeabi;]
[FBAN/FB4A;FBAV/64.0.0.51.76;FBBV/22596764;FBDM/{density=1.5,width=540,height=960};FBLC/en_US;FBCR/cricket;FBMF/samsung;FBBD/samsung;FBPN/com.facebook.katana;FBDV/SAMSUNG-SM-G530AZ;FBSV/5.1.1;nullFBCA/armeabi-v7a:armeabi;]
[FBAN/FB4A;FBAV/77.0.0.20.66;FBBV/30034640;FBDM/{density=1.5,width=540,height=960};FBLC/fr_FR;FBCR/Orange F;FBMF/samsung;FBBD/samsung;FBPN/com.facebook.katana;FBDV/SM-G530FZ;FBSV/5.0.2;FBOP/1;FBCA/armeabi-v7a:armeabi;]
[FBAN/FB4A;FBAV/72.0.0.22.69;FBBV/27550336;FBDM/{density=1.5,width=540,height=960};FBLC/en_US;FBCR/T-Mobile;FBMF/samsung;FBBD/samsung;FBPN/com.facebook.katana;FBDV/SM-G530T;FBSV/5.1.1;FBOP/1;FBCA/armeabi-v7a:armeabi;]
😊[FBAN/FB4A;FBAV/88.0.0.22.76;FBBV/35266892;FBDM/{density=1.5,width=540,height=960};FBLC/en_US;FBCR/vodafone IT;FBMF/KOMU;FBBD/KOMU;FBPN/com.facebook.katana;FBDV/Komu Color;FBSV/4.4.2;FBOP/1;FBCA/armeabi-v7a:armeabi;]
[FBAN/FB4A;FBAV/82.0.0.0.27;FBBV/31528336;FBDM/{density=1.5,width=480,height=854};FBLC/ro_RO;FBCR/Digi.Mobil;FBMF/ALLVIEW;FBBD/ALLVIEW;FBPN/com.facebook.katana;FBDV/P5Life;FBSV/4.4.2;FBOP/19;FBCA/armeabi-v7a:armeabi;]
[FBAN/FB4A;FBAV/61.0.0.15.69;FBBV/20748051;FBDM/{density=1.5,width=480,height=800};FBLC/pl_PL;FBCR/Orange;FBMF/LGE;FBBD/lge;FBPN/com.facebook.katana;FBDV/LG-H220;FBSV/4.4.2;nullFBCA/armeabi-v7a:armeabi;]
[FBAN/FB4A;FBAV/68.0.0.0.20;FBBV/24074715;FBDM/{density=1.5,width=480,height=854};FBLC/fr_FR;FBCR/Credit Mutuel;FBMF/HUAWEI;FBBD/Huawei;FBPN/com.facebook.katana;FBDV/HUAWEI Y550-L01;FBSV/4.4.4;FBOP/19;FBCA/armeabi-v7a:armeabi;]
[FBAN/FB4A;FBAV/61.0.0.15.69;FBBV/20748054;FBDM/{density=2.0,width=720,height=1280};FBLC/en_GB;FBCR/VodafoneAL;FBMF/samsung;FBBD/samsung;FBPN/com.facebook.katana;FBDV/GT-I9301I;FBSV/4.4.2;nullFBCA/armeabi-v7a:armeabi;]
[FBAN/FB4A;FBAV/87.0.0.17.79;FBBV/34592777;FBDM/{density=1.5,width=540,height=960};FBLC/es_ES;FBCR/ENTEL;FBMF/samsung;FBBD/samsung;FBPN/com.facebook.katana;FBDV/SM-G531M;FBSV/5.1.1;FBOP/1;FBCA/armeabi-v7a:armeabi;]
[FBAN/FB4A;FBAV/82.0.0.23.70;FBBV/32429830;FBDM/{density=1.5,width=480,height=800};FBLC/es_LA;FBCR/TIGO;FBMF/samsung;FBBD/samsung;FBPN/com.facebook.katana;FBDV/SM-G318ML;FBSV/4.4.4;FBOP/1;FBCA/armeabi-v7a:armeabi;]
[FBAN/FB4A;FBAV/77.0.0.20.66;FBBV/30034615;FBDM/{density=1.5,width=480,height=800};FBLC/es_LA;FBCR/Claro;FBMF/HUAWEI;FBBD/HUAWEI;FBPN/com.facebook.katana;FBDV/HUAWEI Y360-U23;FBSV/4.4.2;FBOP/1;FBCA/armeabi-v7a:armeabi;]
[FBAN/FB4A;FBAV/82.0.0.23.70;FBBV/32429881;FBDM/{density=2.0,width=720,height=1280};FBLC/es_LA;FBCR/MetroPCS;FBMF/TCL;FBBD/TCL;FBPN/com.facebook.katana;FBDV/5056N;FBSV/6.0.1;FBOP/1;FBCA/armeabi-v7a:armeabi;]
[FBAN/FB4A;FBAV/76.0.0.24.67;FBBV/29581400;FBDM/{density=1.0,width=1024,height=552};FBLC/fr_FR;FBCR/;FBMF/eZee'Tab10D11-L;FBBD/Android;FBPN/com.facebook.katana;FBDV/eZee'Tab10D11-L;FBSV/4.4.2;FBOP/1;FBCA/armeabi-v7a:armeabi;]
[FBAN/FB4A;FBAV/73.0.0.18.66;FBBV/28132076;FBDM/{density=2.0,width=720,height=1184};FBLC/fr_FR;FBCR/;FBMF/HUAWEI;FBBD/Huawei;FBPN/com.facebook.katana;FBDV/ALE-UL00;FBSV/5.0.2;FBOP/1;FBCA/armeabi-v7a:armeabi;]
[FBAN/FB4A;FBAV/83.0.0.20.71;FBBV/32723413;FBDM/{density=1.5,width=480,height=800};FBLC/es_ES;FBCR/;FBMF/samsung;FBBD/samsung;FBPN/com.facebook.katana;FBDV/SM-G355H;FBSV/4.4.2;FBOP/1;FBCA/armeabi-v7a:armeabi;]
[FBAN/FB4A;FBAV/81.0.0.22.70;FBBV/31880455;FBDM/{density=2.0,width=720,height=1280};FBLC/es_LA;FBCR/TELCEL;FBMF/zte;FBBD/zte;FBPN/com.facebook.katana;FBDV/Z970;FBSV/4.4.4;FBOP/1;FBCA/armeabi-v7a:armeabi;]
[FBAN/FB4A;FBAV/86.0.0.19.69;FBBV/34022659;FBDM/{density=1.5,width=480,height=854};FBLC/es_LA;FBCR/TELCEL;FBMF/TCT;FBBD/TCT;FBPN/com.facebook.katana;FBDV/ALCATEL ONE TOUCH 5036A;FBSV/4.2.2;FBOP/19;FBCA/armeabi-v7a:armeabi;]
[FBAN/FB4A;FBAV/80.0.0.21.65;FBBV/31389908;FBDM/{density=1.5,width=480,height=800};FBLC/es_LA;FBCR/TIGO;FBMF/samsung;FBBD/samsung;FBPN/com.facebook.katana;FBDV/SM-J111M;FBSV/5.1.1;FBOP/1;FBCA/armeabi-v7a:armeabi;]
[FBAN/FB4A;FBAV/85.0.0.15.70;FBBV/33678595;FBDM/{density=1.5,width=480,height=800};FBLC/pt_BR;FBCR/null;FBMF/LGE;FBBD/lge;FBPN/com.facebook.katana;FBDV/LG-D325;FBSV/4.4.2;FBOP/19;FBCA/armeabi-v7a:armeabi;]
[FBAN/FB4A;FBAV/61.0.0.15.69;FBBV/20748110;FBDM/{density=2.0,width=720,height=1184};FBLC/es_LA;FBCR/Claro;FBMF/HUAWEI;FBBD/HUAWEI;FBPN/com.facebook.katana;FBDV/HUAWEI TAG-L03;FBSV/5.1;nullFBCA/armeabi-v7a:armeabi;]
[FBAN/FB4A;FBAV/81.0.0.22.70;FBBV/31880428;FBDM/{density=1.0,width=600,height=1024};FBLC/pt_BR;FBCR/;FBMF/samsung;FBBD/samsung;FBPN/com.facebook.katana;FBDV/SM-T113NU;FBSV/4.4.4;FBOP/1;FBCA/armeabi-v7a:armeabi;]
[FBAN/FB4A;FBAV/75.0.0.23.69;FBBV/29142820;FBDM/{density=1.5,width=480,height=800};FBLC/pt_BR;FBCR/Oi;FBMF/samsung;FBBD/samsung;FBPN/com.facebook.katana;FBDV/SM-G360M;FBSV/5.0.2;FBOP/1;FBCA/armeabi-v7a:armeabi;]
[FBAN/FB4A;FBAV/82.0.0.23.70;FBBV/32429824;FBDM/{density=1.5,width=540,height=960};FBLC/es_LA;FBCR/;FBMF/HUAWEI;FBBD/Huawei;FBPN/com.facebook.katana;FBDV/HUAWEI G610-U15;FBSV/4.2.1;FBOP/19;FBCA/armeabi-v7a:armeabi;]
[FBAN/FB4A;FBAV/64.0.0.52.76;FBBV/22754145;FBDM/{density=1.5,width=480,height=782};FBLC/es_LA;FBCR/Claro;FBMF/BLU;FBBD/BLU;FBPN/com.facebook.katana;FBDV/BLU DASH M2;FBSV/6.0;nullFBCA/armeabi-v7a:armeabi;]
[FBAN/FB4A;FBAV/68.0.0.37.59;FBBV/25391163;FBDM/{density=2.0,width=720,height=1184};FBLC/es_LA;FBCR/Claro;FBMF/HUAWEI;FBBD/HUAWEI;FBPN/com.facebook.katana;FBDV/HUAWEI CUN-U29;FBSV/5.1;FBOP/9;FBCA/armeabi-v7a:armeabi;]
[FBAN/FB4A;FBAV/62.0.0.42.77;FBBV/21376152;FBDM/{density=1.5,width=800,height=1280};FBLC/en_US;FBCR/Mobitel LK;FBMF/samsung;FBBD/samsung;FBPN/com.facebook.katana;FBDV/SM-T285YD;FBSV/5.1.1;nullFBCA/armeabi-v7a:armeabi;]
[FBAN/FB4A;FBAV/70.0.0.22.83;FBBV/26502119;FBDM/{density=1.5,width=480,height=782};FBLC/en_US;FBCR/Mtel;FBMF/HTC;FBBD/htc;FBPN/com.facebook.katana;FBDV/HTC Desire 310;FBSV/4.2.2;FBOP/19;FBCA/armeabi-v7a:armeabi;]
[FBAN/FB4A;FBAV/79.0.0.18.71;FBBV/31009779;FBDM/{density=1.5,width=540,height=960};FBLC/es_LA;FBCR/TELCEL;FBMF/samsung;FBBD/samsung;FBPN/com.facebook.katana;FBDV/SM-G531H;FBSV/5.1.1;FBOP/1;FBCA/armeabi-v7a:armeabi;]
[FBAN/FB4A;FBAV/59.0.0.15.313;FBBV/20097173;FBDM/{density=2.0,width=720,height=1280};FBLC/en_US;FBCR/Telenor;FBMF/TCL;FBBD/TCL;FBPN/com.facebook.katana;FBDV/5022D;FBSV/5.1;nullFBCA/armeabi-v7a:armeabi;]
[FBAN/FB4A;FBAV/163.0.0.43.91;FBBV/96845992;FBDM/{density=2.0,width=720,height=1280};FBLC/fr_FR;FBRV/97737839;FBCR/ROGERS;FBMF/samsung;FBBD/samsung;FBPN/com.facebook.katana;FBDV/SM-A500H;FBSV/6.0.1;FBOP/1;FBCA/armeabi-v7a:armeabi;]
[FBAN/FB4A;FBAV/71.0.0.17.73;FBBV/27002112;FBDM/{density=1.5,width=480,height=800};FBLC/es_LA;FBCR/movistar;FBMF/samsung;FBBD/samsung;FBPN/com.facebook.katana;FBDV/SGH-T599N;FBSV/4.1.2;FBOP/1;FBCA/armeabi-v7a:armeabi;]
[FBAN/FB4A;FBAV/82.0.0.23.70;FBBV/32429824;FBDM/{density=1.5,width=800,height=480};FBLC/it_IT;FBCR/I WIND;FBMF/samsung;FBBD/samsung;FBPN/com.facebook.katana;FBDV/GT-S7580;FBSV/4.2.2;FBOP/1;FBCA/armeabi-v7a:armeabi;]
[FBAN/FB4A;FBAV/66.0.0.33.73;FBBV/23966410;FBDM/{density=1.0,width=1280,height=752};FBLC/sv_SE;FBCR/Tele2;FBMF/LENOVO;FBBD/Lenovo;FBPN/com.facebook.katana;FBDV/Lenovo TB2-X30L;FBSV/5.1.1;FBOP/1;FBCA/armeabi-v7a:armeabi;]
[FBAN/FB4A;FBAV/59.0.0.15.313;FBBV/20097191;FBDM/{density=2.0,width=720,height=1184};FBLC/fr_FR;FBCR/;FBMF/WIKO;FBBD/WIKO;FBPN/com.facebook.katana;FBDV/PULP 4G;FBSV/5.1.1;nullFBCA/armeabi-v7a:armeabi;]
[FBAN/FB4A;FBAV/82.0.0.23.70;FBBV/32429830;FBDM/{density=2.0,width=720,height=1280};FBLC/nl_NL;FBCR/NL KPN;FBMF/samsung;FBBD/samsung;FBPN/com.facebook.katana;FBDV/GT-I9300;FBSV/4.3;FBOP/1;FBCA/armeabi-v7a:armeabi;]
[FBAN/FB4A;FBAV/65.0.0.42.81;FBBV/23239453;FBDM/{density=1.5,width=540,height=960};FBLC/es_LA;FBCR/TELCEL;FBMF/samsung;FBBD/samsung;FBPN/com.facebook.katana;FBDV/SM-G532M;FBSV/6.0.1;nullFBCA/armeabi-v7a:armeabi;]
[FBAN/FB4A;FBAV/65.0.0.42.81;FBBV/23239534;FBDM/{density=2.0,width=720,height=1280};FBLC/es_LA;FBCR/TELCEL;FBMF/M4TEL;FBBD/alps;FBPN/com.facebook.katana;FBDV/M4 SS4455;FBSV/5.1;nullFBCA/armeabi-v7a:armeabi;]
[FBAN/FB4A;FBAV/77.0.0.20.66;FBBV/30034644;FBDM/{density=1.5,width=480,height=854};FBLC/en_US;FBCR/Etisalat NG;FBMF/TECNO;FBBD/TECNO;FBPN/com.facebook.katana;FBDV/TECNO-W3;FBSV/6.0;FBOP/1;FBCA/armeabi-v7a:armeabi;]
[FBAN/FB4A;FBAV/75.0.0.23.69;FBBV/29142907;FBDM/{density=1.5,width=480,height=854};FBLC/en_US;FBCR/Jazz;FBMF/QMobile;FBBD/QMobile;FBPN/com.facebook.katana;FBDV/QMobile i6 Metal ONE;FBSV/6.0;FBOP/1;FBCA/armeabi-v7a:armeabi;]
[FBAN/FB4A;FBAV/78.0.0.16.67;FBBV/30529816;FBDM/{density=2.0,width=720,height=1280};FBLC/en_US;FBCR/MTN NG;FBMF/Infinix;FBBD/Infinix;FBPN/com.facebook.katana;FBDV/Infinix_X521;FBSV/6.0;FBOP/1;FBCA/armeabi-v7a:armeabi;]
Dalvik/2.1.0 (Linux; U; Android 5.0.1; GT-I9505 Build/LRX22C) [FBAN/Orca-Android;FBAV/130.0.0.15.89;FBPN/com.facebook.orca;FBLC/sv_SE;FBBV/67467545;FBCR/S COMVIQ;FBMF/samsung;FBBD/samsung;FBDV/GT-I9505;FBSV/5.0.1;FBCA/armeabi-v7a:armeabi;FBDM/{density=3.0,width=1080,height=1920};FB_FW/1;]
Linux; U; Android 5.0.1; GT-I9505 Build/LRX22C) [FBAN/Orca-Android;FBAV/130.0.0.15.89;FBPN/com.facebook.orca;FBLC/sv_SE;FBBV/67467545;FBCR/S COMVIQ;FBMF/samsung;FBBD/samsung;FBDV/GT-I9505;FBSV/5.0.1;FBCA/armeabi-v7a:armeabi;FBDM/{density=3.0,width=1080,height=1920};FB_FW/1;]
[FBAN/Orca-Android;FBAV/130.0.0.15.89;FBPN/com.facebook.orca;FBLC/sv_SE;FBBV/67467545;FBCR/S COMVIQ;FBMF/samsung;FBBD/samsung;FBDV/GT-I9505;FBSV/5.0.1;FBCA/armeabi-v7a:armeabi;FBDM/{density=3.0,width=1080,height=1920};FB_FW/1;]
Navigateur Dalvik/2.1.0 (Linux; U; Android 8.0.0; SM-G930F Build/R16NW) [FBAN/FB4A;FBAV/187.0.0.43.81;FBPN/com.facebook.katana;FBLC/fr_FR;FBBV/122388438;FBCR/Bouygues Telecom;FBMF/samsung;FBBD/samsung;FBDV/SM-G930F;FBSV/8.0.0;FBCA/armeabi-v7a:armeabi;FBDM/{density=3.0,width=1080,h
Dalvik/2.1.0 (Linux; U; Android 8.0.0; SM-G930F Build/R16NW) [FBAN/FB4A;FBAV/187.0.0.43.81;FBPN/com.facebook.katana;FBLC/fr_FR;FBBV/122388438;FBCR/Bouygues Telecom;FBMF/samsung;FBBD/samsung;FBDV/SM-G930F;FBSV/8.0.0;FBCA/armeabi-v7a:armeabi;FBDM/{density=3.0,width=1080,h
[FBAN/FB4A;FBAV/150.0.0.38.138;FBBV/80156280;FBDM/{density=2.0,width=720,height=1280};FBLC/pt_PT;FBRV/80939760;FBCR/vodafone P;FBMF/samsung;FBBD/samsung;FBPN/com.facebook.katana;FBDV/SM-J500F;FBSV/6.0.1;FBOP/19;FBCA/armeabi-v7a:armeabi;]
[FBAN/FB4A;FBAV/153.0.0.54.88;FBBV/84570984;FBDM/{density=3.0,width=1080,height=1920};FBLC/pt_PT;FBRV/85070460;FBCR/vodafone P;FBMF/samsung;FBBD/samsung;FBPN/com.facebook.katana;FBDV/SM-A520F;FBSV/7.0;FBOP/19;FBCA/armeabi-v7a:armeabi;]
[FBAN/FB4A;FBAV/154.0.0.33.385;FBBV/87107435;FBDM/{density=2.0,width=720,height=1208};FBLC/pt_PT;FBRV/87107435;FBCR/altice MEO;FBMF/HUAWEI;FBBD/Huawei;FBPN/com.facebook.katana;FBDV/ALE-L21;FBSV/6.0;FBOP/19;FBCA/armeabi-v7a:armeabi;]
[FBAN/FB4A;FBAV/153.0.0.54.88;FBBV/84570982;FBDM/{density=2.0,width=720,height=1187};FBLC/pt_PT;FBRV/85070460;FBCR/MEO;FBMF/LGE;FBBD/lge;FBPN/com.facebook.katana;FBDV/LG-K350;FBSV/6.0;FBOP/1;FBCA/armeabi-v7a:armeabi;]
[FBAN/FB4A;FBAV/153.0.0.54.88;FBBV/84570982;FBDM/{density=2.0,width=720,height=1280};FBLC/pt_PT;FBRV/85070460;FBCR/MEO;FBMF/samsung;FBBD/samsung;FBPN/com.facebook.katana;FBDV/SM-A310F;FBSV/7.0;FBOP/19;FBCA/armeabi-v7a:armeabi;]
[FBAN/FB4A;FBAV/153.0.0.54.88;FBBV/84570984;FBDM/{density=3.0,width=1080,height=1920};FBLC/pt_PT;FBRV/85070460;FBCR/;FBMF/samsung;FBBD/samsung;FBPN/com.facebook.katana;FBDV/SM-A520F;FBSV/7.0;FBOP/19;FBCA/armeabi-v7a:armeabi;]
[FBAN/FB4A;FBAV/154.0.0.33.385;FBBV/87107448;FBDM/{density=3.0,width=1080,height=1920};FBLC/pt_PT;FBRV/87107448;FBCR/vodafone P;FBMF/samsung;FBBD/samsung;FBPN/com.facebook.katana;FBDV/SM-N9005;FBSV/5.0;FBOP/1;FBCA/armeabi-v7a:armeabi;]
[FBAN/FB4A;FBAV/153.0.0.54.88;FBBV/84570982;FBDM/{density=2.0,width=720,height=1184};FBLC/pt_PT;FBRV/85070460;FBCR/altice MEO;FBMF/HUAWEI;FBBD/HUAWEI;FBPN/com.facebook.katana;FBDV/HUAWEI CUN-L21;FBSV/5.1;FBOP/1;FBCA/armeabi-v7a:armeabi;]
[FBAN/FB4A;FBAV/153.0.0.54.88;FBBV/84570982;FBDM/{density=2.0,width=720,height=1280};FBLC/pt_PT;FBRV/85070460;FBCR/altice MEO;FBMF/asus;FBBD/asus;FBPN/com.facebook.katana;FBDV/ASUS_Z00LD;FBSV/6.0.1;FBOP/19;FBCA/armeabi-v7a:armeabi;]
[FBAN/FB4A;FBAV/153.0.0.54.88;FBBV/84570982;FBDM/{density=2.0,width=720,height=1280};FBLC/pt_PT;FBRV/85070460;FBCR/vodafone P;FBMF/samsung;FBBD/samsung;FBPN/com.facebook.katana;FBDV/SM-A500FU;FBSV/6.0.1;FBOP/1;FBCA/armeabi-v7a:armeabi;]
[FBAN/FB4A;FBAV/153.0.0.54.88;FBBV/84570984;FBDM/{density=2.625,width=1080,height=1920};FBLC/pt_PT;FBRV/84966289;FBCR/NOS;FBMF/samsung;FBBD/samsung;FBPN/com.facebook.katana;FBDV/SM-J730F;FBSV/7.0;FBOP/19;FBCA/armeabi-v7a:armeabi;]
[FBAN/FB4A;FBAV/153.0.0.54.88;FBBV/84570984;FBDM/{density=3.0,width=1080,height=1776};FBLC/pt_PT;FBRV/85070460;FBCR/vodafone P;FBMF/WIKO;FBBD/WIKO;FBPN/com.facebook.katana;FBDV/U FEEL PRIME;FBSV/7.1.1;FBOP/1;FBCA/armeabi-v7a:armeabi;]
[FBAN/FB4A;FBAV/153.0.0.54.88;FBBV/84570978;FBDM/{density=1.5,width=540,height=960};FBLC/en_GB;FBRV/85070460;FBCR/altice MEO;FBMF/samsung;FBBD/samsung;FBPN/com.facebook.katana;FBDV/SM-A300FU;FBSV/6.0.1;FBOP/1;FBCA/armeabi-v7a:armeabi;]
[FBAN/FB4A;FBAV/153.0.0.54.88;FBBV/84570982;FBDM/{density=2.0,width=720,height=1280};FBLC/pt_PT;FBRV/85070460;FBCR/NOS;FBMF/TCL;FBBD/TCL;FBPN/com.facebook.katana;FBDV/5056D;FBSV/6.0.1;FBOP/1;FBCA/armeabi-v7a:armeabi;]
[FBAN/FB4A;FBAV/153.0.0.54.88;FBBV/84570984;FBDM/{density=3.0,width=1080,height=1812};FBLC/pt_PT;FBRV/85070460;FBCR/NOS;FBMF/HUAWEI;FBBD/HUAWEI;FBPN/com.facebook.katana;FBDV/PRA-LX1;FBSV/7.0;FBOP/19;FBCA/armeabi-v7a:armeabi;]
[FBAN/FB4A;FBAV/148.0.0.51.62;FBBV/78217111;FBDM/{density=3.0,width=1080,height=1776};FBLC/pt_PT;FBRV/78767892;FBCR/vodafone P;FBMF/WIKO;FBBD/WIKO;FBPN/com.facebook.katana;FBDV/FEVER;FBSV/6.0;FBOP/1;FBCA/armeabi-v7a:armeabi;]
[FBAN/FB4A;FBAV/153.0.0.54.88;FBBV/84570982;FBDM/{density=2.0,width=720,height=1280};FBLC/pt_PT;FBRV/85070460;FBCR/vodafone P;FBMF/samsung;FBBD/samsung;FBPN/com.facebook.katana;FBDV/SM-J500F;FBSV/6.0.1;FBOP/19;FBCA/armeabi-v7a:armeabi;]
[FBAN/FB4A;FBAV/153.0.0.54.88;FBBV/84570982;FBDM/{density=2.0,width=720,height=1184};FBLC/pt_PT;FBRV/85070460;FBCR/vodafone P;FBMF/ZTE;FBBD/ZTE;FBPN/com.facebook.katana;FBDV/ZTE BLADE A512;FBSV/6.0.1;FBOP/1;FBCA/armeabi-v7a:armeabi;]
[FBAN/FB4A;FBAV/153.0.0.54.88;FBBV/84570982;FBDM/{density=2.0,width=720,height=1280};FBLC/pt_PT;FBRV/85070460;FBCR/NOS;FBMF/TCL;FBBD/TCL;FBPN/com.facebook.katana;FBDV/5054X;FBSV/5.1.1;FBOP/1;FBCA/armeabi-v7a:armeabi;]
[FBAN/FB4A;FBAV/151.0.0.44.205;FBBV/81374851;FBDM/{density=2.0,width=720,height=1187};FBLC/pt_PT;FBRV/82651122;FBCR/MEO;FBMF/LGE;FBBD/lge;FBPN/com.facebook.katana;FBDV/LG-H502;FBSV/6.0;FBOP/1;FBCA/armeabi-v7a:armeabi;]
[FBAN/FB4A;FBAV/151.0.0.44.205;FBBV/81374851;FBDM/{density=2.0,width=720,height=1280};FBLC/pt_PT;FBRV/82651122;FBCR/NOS;FBMF/ZTE;FBBD/ZTE;FBPN/com.facebook.katana;FBDV/NOS FIVE;FBSV/5.1;FBOP/1;FBCA/armeabi-v7a:armeabi;]
[FBAN/FB4A;FBAV/153.0.0.54.88;FBBV/84570982;FBDM/{density=2.0,width=720,height=1280};FBLC/pt_PT;FBRV/85070460;FBCR/NOS;FBMF/samsung;FBBD/samsung;FBPN/com.facebook.katana;FBDV/SM-J500F;FBSV/5.1.1;FBOP/1;FBCA/armeabi-v7a:armeabi;]
[FBAN/FB4A;FBAV/153.0.0.54.88;FBBV/84570984;FBDM/{density=3.0,width=1080,height=1920};FBLC/pt_PT;FBRV/84570984;FBCR/MEO;FBMF/samsung;FBBD/samsung;FBPN/com.facebook.katana;FBDV/SM-G935F;FBSV/7.0;FBOP/19;FBCA/armeabi-v7a:armeabi;]
[FBAN/FB4A;FBAV/153.0.0.53.88;FBBV/84425344;FBDM/{density=1.5,width=540,height=960};FBLC/pt_PT;FBRV/84425344;FBCR/;FBMF/samsung;FBBD/samsung;FBPN/com.facebook.katana;FBDV/SM-G530FZ;FBSV/5.0.2;FBOP/1;FBCA/armeabi-v7a:armeabi;]
[FBAN/FB4A;FBAV/153.0.0.54.88;FBBV/84570982;FBDM/{density=2.0,width=720,height=1184};FBLC/pt_PT;FBRV/85070460;FBCR/;FBMF/asus;FBBD/asus;FBPN/com.facebook.katana;FBDV/ASUS_X008D;FBSV/7.0;FBOP/19;FBCA/armeabi-v7a:armeabi;]
[FBAN/FB4A;FBAV/159.0.0.38.95;FBBV/91889140;FBDM/{density=1.0,width=1280,height=752};FBLC/pt_PT;FBRV/92233038;FBCR/;FBMF/LENOVO;FBBD/Lenovo;FBPN/com.facebook.katana;FBDV/Lenovo TB-X103F;FBSV/6.0.1;FBOP/1;FBCA/armeabi-v7a:armeabi;]
[FBAN/FB4A;FBAV/153.0.0.54.88;FBBV/84570982;FBDM/{density=2.0,width=720,height=1280};FBLC/pt_PT;FBRV/85070460;FBCR/altice MEO;FBMF/samsung;FBBD/samsung;FBPN/com.facebook.katana;FBDV/SM-J320F;FBSV/5.1.1;FBOP/19;FBCA/armeabi-v7a:armeabi;]
[FBAN/FB4A;FBAV/154.0.0.33.385;FBBV/87107435;FBDM/{density=2.0,width=720,height=1280};FBLC/pt_PT;FBRV/87107435;FBCR/vodafone P;FBMF/TCL;FBBD/TCL;FBPN/com.facebook.katana;FBDV/5056D;FBSV/6.0.1;FBOP/1;FBCA/armeabi-v7a:armeabi;]
[FBAN/FB4A;FBAV/153.0.0.54.88;FBBV/84570984;FBDM/{density=3.0,width=1080,height=1920};FBLC/pt_PT;FBRV/85070460;FBCR/vodafone P;FBMF/samsung;FBBD/samsung;FBPN/com.facebook.katana;FBDV/SM-A510F;FBSV/7.0;FBOP/19;FBCA/armeabi-v7a:armeabi;]
[FBAN/FB4A;FBAV/153.0.0.54.88;FBBV/84570982;FBDM/{density=2.0,width=720,height=1184};FBLC/pt_PT;FBRV/85070460;FBCR/MEO;FBMF/HUAWEI;FBBD/HUAWEI;FBPN/com.facebook.katana;FBDV/HUAWEI CUN-L01;FBSV/5.1;FBOP/1;FBCA/armeabi-v7a:armeabi;]
[FBAN/FB4A;FBAV/153.0.0.54.88;FBBV/84570982;FBDM/{density=2.0,width=720,height=1184};FBLC/pt_PT;FBRV/85070460;FBCR/NOS;FBMF/HUAWEI;FBBD/HUAWEI;FBPN/com.facebook.katana;FBDV/HUAWEI TAG-L21;FBSV/5.1;FBOP/1;FBCA/armeabi-v7a:armeabi;]
[FBAN/FB4A;FBAV/153.0.0.54.88;FBBV/84570978;FBDM/{density=1.5,width=480,height=800};FBLC/pt_PT;FBRV/85070460;FBCR/;FBMF/samsung;FBBD/samsung;FBPN/com.facebook.katana;FBDV/SM-G361F;FBSV/5.1.1;FBOP/1;FBCA/armeabi-v7a:armeabi;]
[FBAN/FB4A;FBAV/151.0.0.44.205;FBBV/81374851;FBDM/{density=2.0,width=720,height=1280};FBLC/pt_PT;FBRV/82651122;FBCR/vodafone P;FBMF/Vodafone;FBBD/Vodafone;FBPN/com.facebook.katana;FBDV/VFD 600;FBSV/6.0.1;FBOP/1;FBCA/armeabi-v7a:armeabi;]
[FBAN/FB4A;FBAV/153.0.0.54.88;FBBV/84570982;FBDM/{density=2.0,width=720,height=1280};FBLC/pt_PT;FBRV/85070460;FBCR/NOS;FBMF/samsung;FBBD/samsung;FBPN/com.facebook.katana;FBDV/SM-J530F;FBSV/7.0;FBOP/19;FBCA/armeabi-v7a:armeabi;]
[FBAN/FB4A;FBAV/153.0.0.54.88;FBBV/84570982;FBDM/{density=2.0,width=720,height=1280};FBLC/pt_PT;FBRV/85070460;FBCR/vodafone P;FBMF/HMD Global;FBBD/Nokia;FBPN/com.facebook.katana;FBDV/TA-1020;FBSV/7.1.1;FBOP/1;FBCA/armeabi-v7a:armeabi;]
[FBAN/FB4A;FBAV/153.0.0.54.88;FBBV/84570978;FBDM/{density=1.5,width=480,height=854};FBLC/pt_PT;FBRV/85070460;FBCR/altice MEO;FBMF/WIKO;FBBD/WIKO;FBPN/com.facebook.katana;FBDV/LENNY2;FBSV/5.1;FBOP/1;FBCA/armeabi-v7a:armeabi;]
[FBAN/FB4A;FBAV/153.0.0.54.88;FBBV/84570984;FBDM/{density=3.0,width=1080,height=1812};FBLC/pt_PT;FBRV/85070460;FBCR/altice MEO;FBMF/HUAWEI;FBBD/HUAWEI;FBPN/com.facebook.katana;FBDV/WAS-LX1A;FBSV/7.0;FBOP/1;FBCA/armeabi-v7a:armeabi;]
[FBAN/FB4A;FBAV/153.0.0.54.88;FBBV/84570982;FBDM/{density=2.0,width=720,height=1280};FBLC/pt_PT;FBRV/85070460;FBCR/altice MEO;FBMF/samsung;FBBD/samsung;FBPN/com.facebook.katana;FBDV/SM-J530F;FBSV/7.0;FBOP/19;FBCA/armeabi-v7a:armeabi;]
[FBAN/FB4A;FBAV/153.0.0.54.88;FBBV/84570978;FBDM/{density=1.5,width=1200,height=1920};FBLC/pt_PT;FBRV/85070460;FBCR/;FBMF/samsung;FBBD/samsung;FBPN/com.facebook.katana;FBDV/SM-T580;FBSV/7.0;FBOP/1;FBCA/armeabi-v7a:armeabi;]
[FBAN/FB4A;FBAV/153.0.0.54.88;FBBV/84570984;FBDM/{density=2.625,width=1080,height=2034};FBLC/en_GB;FBRV/85070460;FBCR/altice MEO;FBMF/OnePlus;FBBD/OnePlus;FBPN/com.facebook.katana;FBDV/ONEPLUS A5010;FBSV/7.1.1;FBOP/1;FBCA/armeabi-v7a:armeabi;]
[FBAN/FB4A;FBAV/154.0.0.33.385;FBBV/87107448;FBDM/{density=3.0,width=1080,height=1794};FBLC/pt_PT;FBRV/87107448;FBCR/WTF;FBMF/HUAWEI;FBBD/HUAWEI;FBPN/com.facebook.katana;FBDV/EVA-L09;FBSV/7.0;FBOP/1;FBCA/armeabi-v7a:armeabi;]
[FBAN/FB4A;FBAV/153.0.0.54.88;FBBV/84570984;FBDM/{density=3.0,width=1920,height=1080};FBLC/pt_PT;FBRV/85070460;FBCR/vodafone P;FBMF/samsung;FBBD/samsung;FBPN/com.facebook.katana;FBDV/GT-I9505;FBSV/5.0.1;FBOP/1;FBCA/armeabi-v7a:armeabi;]
[FBAN/FB4A;FBAV/153.0.0.54.88;FBBV/84570984;FBDM/{density=2.625,width=1080,height=2094};FBLC/ru_RU;FBRV/85070460;FBCR/NOS;FBMF/samsung;FBBD/samsung;FBPN/com.facebook.katana;FBDV/SM-G955F;FBSV/7.0;FBOP/19;FBCA/armeabi-v7a:armeabi;]
[FBAN/FB4A;FBAV/153.0.0.54.88;FBBV/84570982;FBDM/{density=2.0,width=720,height=1208};FBLC/pt_PT;FBRV/85070460;FBCR/NOS;FBMF/HUAWEI;FBBD/Huawei;FBPN/com.facebook.katana;FBDV/ALE-L21;FBSV/6.0;FBOP/19;FBCA/armeabi-v7a:armeabi;]
[FBAN/FB4A;FBAV/153.0.0.54.88;FBBV/84570982;FBDM/{density=2.0,width=720,height=1184};FBLC/pt_PT;FBRV/85070460;FBCR/altice MEO;FBMF/Sony;FBBD/Sony;FBPN/com.facebook.katana;FBDV/G3121;FBSV/7.0;FBOP/19;FBCA/armeabi-v7a:armeabi;]
[FBAN/FB4A;FBAV/149.0.0.40.71;FBBV/79007703;FBDM/{density=2.0,width=720,height=1280};FBLC/pt_PT;FBRV/79424004;FBCR/vodafone P;FBMF/Vodafone;FBBD/Vodafone;FBPN/com.facebook.katana;FBDV/VFD 600;FBSV/6.0.1;FBOP/1;FBCA/armeabi-v7a:armeabi;]
[FBAN/FB4A;FBAV/153.0.0.54.88;FBBV/84570982;FBDM/{density=2.0,width=720,height=1280};FBLC/pt_PT;FBRV/85070460;FBCR/;FBMF/TP-Link;FBBD/Neffos;FBPN/com.facebook.katana;FBDV/Neffos X1;FBSV/7.0;FBOP/1;FBCA/armeabi-v7a:armeabi;]
[FBAN/FB4A;FBAV/154.0.0.33.385;FBBV/87107435;FBDM/{density=1.75,width=720,height=1280};FBLC/pt_PT;FBRV/87595196;FBCR/altice MEO;FBMF/samsung;FBBD/samsung;FBPN/com.facebook.katana;FBDV/SM-J530F;FBSV/7.0;FBOP/19;FBCA/armeabi-v7a:armeabi;]
[FBAN/FB4A;FBAV/160.0.0.30.94;FBBV/93146056;FBDM/{density=3.0,width=1080,height=1776};FBLC/pt_PT;FBRV/93722336;FBCR/altice MEO;FBMF/Sony;FBBD/Sony;FBPN/com.facebook.katana;FBDV/C6903;FBSV/5.1.1;FBOP/1;FBCA/armeabi-v7a:armeabi;]
[FBAN/FB4A;FBAV/160.0.0.30.94;FBBV/93146050;FBDM/{density=1.5,width=854,height=480};FBLC/pt_PT;FBRV/93722336;FBCR/altice MEO;FBMF/WIKO;FBBD/WIKO;FBPN/com.facebook.katana;FBDV/FREDDY;FBSV/6.0.1;FBOP/1;FBCA/armeabi-v7a:armeabi;]
[FBAN/FB4A;FBAV/153.0.0.54.88;FBBV/84570984;FBDM/{density=4.0,width=1440,height=2560};FBLC/pt_PT;FBRV/85070460;FBCR/NOWO;FBMF/samsung;FBBD/samsung;FBPN/com.facebook.katana;FBDV/SM-N910F;FBSV/6.0.1;FBOP/19;FBCA/armeabi-v7a:armeabi;]
[FBAN/FB4A;FBAV/153.0.0.54.88;FBBV/84570984;FBDM/{density=3.0,width=1080,height=1812};FBLC/pt_PT;FBRV/85070460;FBCR/vodafone P;FBMF/HUAWEI;FBBD/HUAWEI;FBPN/com.facebook.katana;FBDV/VTR-L09;FBSV/7.0;FBOP/19;FBCA/armeabi-v7a:armeabi;]
[FBAN/FB4A;FBAV/153.0.0.54.88;FBBV/84570984;FBDM/{density=4.0,width=1440,height=2560};FBLC/pt_PT;FBRV/85070460;FBCR/vodafone P;FBMF/samsung;FBBD/samsung;FBPN/com.facebook.katana;FBDV/SM-N910F;FBSV/6.0.1;FBOP/19;FBCA/armeabi-v7a:armeabi;]
[FBAN/FB4A;FBAV/153.0.0.54.88;FBBV/84570978;FBDM/{density=1.5,width=540,height=960};FBLC/pt_PT;FBRV/84966289;FBCR/altice MEO;FBMF/samsung;FBBD/samsung;FBPN/com.facebook.katana;FBDV/SM-G531F;FBSV/5.1.1;FBOP/1;FBCA/armeabi-v7a:armeabi;]
[FBAN/FB4A;FBAV/153.0.0.54.88;FBBV/84570982;FBDM/{density=2.0,width=720,height=1280};FBLC/pt_PT;FBRV/85070460;FBCR/vodafone P;FBMF/samsung;FBBD/samsung;FBPN/com.facebook.katana;FBDV/SM-J320FN;FBSV/5.1.1;FBOP/19;FBCA/armeabi-v7a:armeabi;]
[FBAN/FB4A;FBAV/151.0.0.44.205;FBBV/81374841;FBDM/{density=1.5,width=480,height=854};FBLC/pt_PT;FBRV/82651122;FBCR/altice MEO;FBMF/asus;FBBD/asus;FBPN/com.facebook.katana;FBDV/ASUS_X00BD;FBSV/5.1.1;FBOP/1;FBCA/armeabi-v7a:armeabi;]
[FBAN/FB4A;FBAV/153.0.0.54.88;FBBV/84570975;FBDM/{density=1.0,width=768,height=1024};FBLC/pt_PT;FBRV/85070460;FBCR/;FBMF/samsung;FBBD/samsung;FBPN/com.facebook.katana;FBDV/SM-T550;FBSV/7.1.1;FBOP/1;FBCA/armeabi-v7a:armeabi;]
[FBAN/FB4A;FBAV/153.0.0.54.88;FBBV/84570982;FBDM/{density=2.0,width=720,height=1280};FBLC/pt_PT;FBRV/85070460;FBCR/altice MEO;FBMF/asus;FBBD/asus;FBPN/com.facebook.katana;FBDV/ASUS_Z00ED;FBSV/6.0.1;FBOP/19;FBCA/armeabi-v7a:armeabi;]
[FBAN/FB4A;FBAV/159.0.0.38.95;FBBV/91889149;FBDM/{density=3.0,width=1080,height=1794};FBLC/pt_PT;FBRV/92451898;FBCR/vodafone P;FBMF/HUAWEI;FBBD/HUAWEI;FBPN/com.facebook.katana;FBDV/EVA-L09;FBSV/7.0;FBOP/1;FBCA/armeabi-v7a:armeabi;]
[FBAN/FB4A;FBAV/153.0.0.54.88;FBBV/84570982;FBDM/{density=2.0,width=720,height=1208};FBLC/pt_PT;FBRV/85070460;FBCR/altice MEO;FBMF/HUAWEI;FBBD/Huawei;FBPN/com.facebook.katana;FBDV/ALE-L21;FBSV/6.0;FBOP/19;FBCA/armeabi-v7a:armeabi;]
[FBAN/FB4A;FBAV/152.0.0.42.136;FBBV/83110608;FBDM/{density=1.5,width=540,height=960};FBLC/pt_PT;FBRV/84252196;FBCR/altice MEO;FBMF/samsung;FBBD/samsung;FBPN/com.facebook.katana;FBDV/SM-G531F;FBSV/5.1.1;FBOP/1;FBCA/armeabi-v7a:armeabi;]
[FBAN/FB4A;FBAV/163.0.0.43.91;FBBV/96845985;FBDM/{density=1.5,width=540,height=960};FBLC/pt_PT;FBRV/97737839;FBCR/NOS;FBMF/samsung;FBBD/samsung;FBPN/com.facebook.katana;FBDV/SM-G531F;FBSV/5.1.1;FBOP/1;FBCA/armeabi-v7a:armeabi;]
[FBAN/FB4A;FBAV/153.0.0.54.88;FBBV/84570982;FBDM/{density=2.0,width=720,height=1184};FBLC/pt_PT;FBRV/85070460;FBCR/vodafone P;FBMF/ulefone;FBBD/ulefone;FBPN/com.facebook.katana;FBDV/MIX;FBSV/7.0;FBOP/1;FBCA/armeabi-v7a:armeabi;]
[FBAN/FB4A;FBAV/149.0.0.40.71;FBBV/79007703;FBDM/{density=2.0,width=720,height=1280};FBLC/pt_PT;FBRV/79424004;FBCR/vodafone P;FBMF/ZTE;FBBD/ZTE;FBPN/com.facebook.katana;FBDV/NOS NOVU II;FBSV/5.1;FBOP/1;FBCA/armeabi-v7a:armeabi;]
[FBAN/FB4A;FBAV/153.0.0.54.88;FBBV/84570982;FBDM/{density=2.0,width=720,height=1208};FBLC/pt_PT;FBRV/85070460;FBCR/altice MEO;FBMF/HUAWEI;FBBD/HUAWEI;FBPN/com.facebook.katana;FBDV/CAM-L21;FBSV/6.0;FBOP/1;FBCA/armeabi-v7a:armeabi;]
[FBAN/FB4A;FBAV/153.0.0.54.88;FBBV/84570984;FBDM/{density=3.0,width=1080,height=2040};FBLC/pt_PT;FBRV/85070460;FBCR/NOS;FBMF/HUAWEI;FBBD/HUAWEI;FBPN/com.facebook.katana;FBDV/RNE-L21;FBSV/7.0;FBOP/19;FBCA/armeabi-v7a:armeabi;]
[FBAN/FB4A;FBAV/154.0.0.33.385;FBBV/87107435;FBDM/{density=2.0,width=720,height=1280};FBLC/pt_PT;FBRV/87107435;FBCR/vodafone P;FBMF/samsung;FBBD/samsung;FBPN/com.facebook.katana;FBDV/SM-J500F;FBSV/6.0.1;FBOP/19;FBCA/armeabi-v7a:armeabi;]
https://www.google.com/search?q=Browser+Mozilla/5.0+(Linux%3B+Android+6.0.1%3B+SM-J500F+Build/MMB29M%3B+wv)+AppleWebKit/537.36+(KHTML,+like+Gecko)+Version/4.0+Chrome/68.0.3440.91+Mobile+Safari/537.36+%5BFBAN/FB4A%3BFBAV/185.0.0.39.72%3BFBBV/120757039%3BFBDM/%7Bdensity%3D2.0,width%3D720,height%3D1280%7D%3BFBLC/en_US%3BFBRV/120980177%3BFB_FW/2%3BFBCR/+Cell+C%3BFBMF/samsung%3BFBBD/samsung%3BFBPN/com.facebook.katana%3BFBDV/SM-J500F%3BFBSV/6.0.1%3BFBOP/19%3BFBCA/armeabi-v7a:armeabi%3B%5D+Cookie+xl0p**********
[FBAN/FB4A;FBAV/153.0.0.54.88;FBBV/84570982;FBDM/{density=2.0,width=1280,height=720};FBLC/pt_PT;FBRV/85070460;FBCR/altice MEO;FBMF/samsung;FBBD/samsung;FBPN/com.facebook.katana;FBDV/SM-J510FN;FBSV/7.1.1;FBOP/19;FBCA/armeabi-v7a:armeabi;]
[FBAN/FB4A;FBAV/153.0.0.54.88;FBBV/84570984;FBDM/{density=3.0,width=1080,height=1776};FBLC/pt_PT;FBRV/85070460;FBCR/altice MEO;FBMF/TCL;FBBD/TCL;FBPN/com.facebook.katana;FBDV/6055K;FBSV/6.0.1;FBOP/1;FBCA/armeabi-v7a:armeabi;]
[FBAN/FB4A;FBAV/165.0.0.53.93;FBBV/99791899;FBDM/{density=2.0,width=720,height=1280};FBLC/pt_PT;FBRV/100707343;FBCR/vodafone P;FBMF/samsung;FBBD/samsung;FBPN/com.facebook.katana;FBDV/SM-J320F;FBSV/5.1.1;FBOP/19;FBCA/armeabi-v7a:armeabi;]
[FBAN/FB4A;FBAV/152.0.0.42.136;FBBV/83110613;FBDM/{density=3.0,width=1080,height=1776};FBLC/pt_PT;FBRV/84252196;FBCR/NOS;FBMF/TCL;FBBD/TCL;FBPN/com.facebook.katana;FBDV/6045Y;FBSV/6.0.1;FBOP/1;FBCA/armeabi-v7a:armeabi;]
[FBAN/FB4A;FBAV/161.0.0.35.93;FBBV/94117312;FBDM/{density=3.0,width=1080,height=1920};FBLC/pt_PT;FBRV/94628452;FBCR/;FBMF/Vodafone;FBBD/Vodafone;FBPN/com.facebook.katana;FBDV/Vodafone Smart ultra 6;FBSV/6.0.1;FBOP/1;FBCA/armeabi-v7a:armeabi;]
[FBAN/FB4A;FBAV/153.0.0.54.88;FBBV/84570982;FBDM/{density=2.0,width=720,height=1280};FBLC/pt_PT;FBRV/85070460;FBCR/vodafone P;FBMF/Vodafone;FBBD/Vodafone;FBPN/com.facebook.katana;FBDV/VFD 600;FBSV/6.0.1;FBOP/1;FBCA/armeabi-v7a:armeabi;]
[FBAN/FB4A;FBAV/155.0.0.36.96;FBBV/87995188;FBDM/{density=2.0,width=720,height=1280};FBLC/pt_PT;FBRV/88494159;FBCR/altice MEO;FBMF/ZTE;FBBD/ZTE;FBPN/com.facebook.katana;FBDV/NOS NOVU II;FBSV/5.1;FBOP/1;FBCA/armeabi-v7a:armeabi;]
[FBAN/FB4A;FBAV/153.0.0.54.88;FBBV/84570978;FBDM/{density=1.5,width=540,height=888};FBLC/pt_PT;FBRV/85070460;FBCR/NOS;FBMF/Sony;FBBD/Sony;FBPN/com.facebook.katana;FBDV/D2303;FBSV/5.1.1;FBOP/1;FBCA/armeabi-v7a:armeabi;]
[FBAN/FB4A;FBAV/153.0.0.54.88;FBBV/84570984;FBDM/{density=3.0,width=1080,height=1812};FBLC/pt_PT;FBRV/85070460;FBCR/NOS;FBMF/HUAWEI;FBBD/HUAWEI;FBPN/com.facebook.katana;FBDV/HUAWEI VNS-L31;FBSV/7.0;FBOP/1;FBCA/armeabi-v7a:armeabi;]
[FBAN/FB4A;FBAV/153.0.0.54.88;FBBV/84570984;FBDM/{density=3.0,width=1080,height=1812};FBLC/pt_PT;FBRV/85070460;FBCR/vodafone P;FBMF/HUAWEI;FBBD/HUAWEI;FBPN/com.facebook.katana;FBDV/WAS-LX1A;FBSV/7.0;FBOP/19;FBCA/armeabi-v7a:armeabi;]
[FBAN/FB4A;FBAV/153.0.0.54.88;FBBV/84570984;FBDM/{density=3.0,width=1080,height=1812};FBLC/pt_PT;FBRV/85070460;FBCR/vodafone P;FBMF/HUAWEI;FBBD/HUAWEI;FBPN/com.facebook.katana;FBDV/PRA-LX1;FBSV/7.0;FBOP/19;FBCA/armeabi-v7a:armeabi;]
[FBAN/FB4A;FBAV/153.0.0.54.88;FBBV/84570982;FBDM/{density=2.0,width=720,height=1280};FBLC/pt_PT;FBRV/85070460;FBCR/altice MEO;FBMF/samsung;FBBD/samsung;FBPN/com.facebook.katana;FBDV/SM-A310F;FBSV/7.0;FBOP/19;FBCA/armeabi-v7a:armeabi;]
[FBAN/FB4A;FBAV/154.0.0.33.385;FBBV/87107448;FBDM/{density=3.0,width=1080,height=1776};FBLC/pt_PT;FBRV/87107448;FBCR/vodafone P;FBMF/HUAWEI;FBBD/HUAWEI;FBPN/com.facebook.katana;FBDV/HUAWEI ATH-UL01;FBSV/5.1.1;FBOP/1;FBCA/armeabi-v7a:armeabi;]
Mozilla/5.0 (Linux; Android 6.0; CAM-L21 Build/HUAWEICAM-L21; wv) AppleWebKit/537.36 (KHTML, like Gecko) Version/4.0 Chrome/68.0.3440.91 Mobile Safari/537.36 [FBAN/FB4A;FBAV/184.0.0.41.79;FBBV/119894353;FBDM/{density=2.0,width=720,height=1208};FBLC/ar_AR;FBRV/0;FB_FW/2;FBCR/Wataniya;FBMF/HUAWEI;FBBD/HUAWEI;FBPN/com.facebook.katana;FBDV/CAM-L21;FBSV/6.0;FBOP/1;FBCA/armeabi-v7a:armeabi;]
[FBAN/FB4A;FBAV/153.0.0.54.88;FBBV/84570978;FBDM/{density=1.5,width=480,height=854};FBLC/pt_PT;FBRV/85070460;FBCR/altice MEO;FBMF/WIKO;FBBD/WIKO;FBPN/com.facebook.katana;FBDV/Sunny2 Plus;FBSV/7.0;FBOP/1;FBCA/armeabi-v7a:armeabi;]
[FBAN/FB4A;FBAV/156.0.0.36.100;FBBV/88997452;FBDM/{density=2.0,width=720,height=1280};FBLC/pt_PT;FBRV/89153155;FBCR/altice MEO;FBMF/samsung;FBBD/samsung;FBPN/com.facebook.katana;FBDV/SM-J320F;FBSV/5.1.1;FBOP/19;FBCA/armeabi-v7a:armeabi;]
[FBAN/FB4A;FBAV/153.0.0.54.88;FBBV/84570984;FBDM/{density=3.0,width=1080,height=1920};FBLC/pt_PT;FBRV/85070460;FBCR/altice MEO;FBMF/samsung;FBBD/samsung;FBPN/com.facebook.katana;FBDV/SM-G935F;FBSV/7.0;FBOP/19;FBCA/armeabi-v7a:armeabi;]
[FBAN/FB4A;FBAV/153.0.0.54.88;FBBV/84570982;FBDM/{density=2.0,width=720,height=1280};FBLC/pt_PT;FBRV/85070460;FBCR/NOS;FBMF/samsung;FBBD/samsung;FBPN/com.facebook.katana;FBDV/SM-J320F;FBSV/5.1.1;FBOP/19;FBCA/armeabi-v7a:armeabi;]
[FBAN/FB4A;FBAV/153.0.0.54.88;FBBV/84570978;FBDM/{density=1.5,width=480,height=854};FBLC/pt_PT;FBRV/85070460;FBCR/vodafone P;FBMF/WIKO;FBBD/WIKO;FBPN/com.facebook.katana;FBDV/JERRY;FBSV/6.0;FBOP/1;FBCA/armeabi-v7a:armeabi;]
[FBAN/FB4A;FBAV/153.0.0.54.88;FBBV/84570984;FBDM/{density=3.5,width=1440,height=2560};FBLC/pt_PT;FBRV/84570984;FBCR/vodafone P;FBMF/samsung;FBBD/samsung;FBPN/com.facebook.katana;FBDV/SM-G935F;FBSV/7.0;FBOP/19;FBCA/armeabi-v7a:armeabi;]
[FBAN/FB4A;FBAV/155.0.0.36.96;FBBV/87995190;FBDM/{density=3.0,width=1080,height=1920};FBLC/pt_PT;FBRV/87995190;FBCR/NOS;FBMF/samsung;FBBD/samsung;FBPN/com.facebook.katana;FBDV/SM-G935F;FBSV/7.0;FBOP/19;FBCA/armeabi-v7a:armeabi;]
[FBAN/FB4A;FBAV/151.0.0.44.205;FBBV/81374851;FBDM/{density=2.0,width=720,height=1280};FBLC/pt_PT;FBRV/82651122;FBCR/altice MEO;FBMF/Hisense;FBBD/Hisense;FBPN/com.facebook.katana;FBDV/Hisense L678;FBSV/5.1.1;FBOP/1;FBCA/armeabi-v7a:armeabi;]
[FBAN/FB4A;FBAV/155.0.0.36.96;FBBV/87995188;FBDM/{density=2.0,width=720,height=1280};FBLC/pt_PT;FBRV/88494159;FBCR/NOS;FBMF/ZTE;FBBD/ZTE;FBPN/com.facebook.katana;FBDV/NOS NOVU II;FBSV/5.1;FBOP/1;FBCA/armeabi-v7a:armeabi;]
[FBAN/FB4A;FBAV/37.0.0.48.234;FBBV/12793182;FBDM/{density=1.5,width=480,height=800};FBLC/pt_PT;FBCR/vodafone P;FBMF/samsung;FBBD/samsung;FBPN/com.facebook.katana;FBDV/GT-I9070;FBSV/2.3.6;FBOP/1;FBCA/armeabi-v7a:armeabi;]
Dalvik/2.1.0 (Linux; U; Android 8.0.0; SM-A720F Build/R16NW) [FBAN/Orca-Android;FBAV/196.0.0.29.99;FBPN/com.facebook.orca;FBLC/th_TH;FBBV/135374479;FBCR/AIS;FBMF/samsung;FBBD/samsung;FBDV/SM-A720F;FBSV/8.0.0;FBCA/armeabi-v7a:armeabi;FBDM/{density=3.0,width=1080,height=1920};FB_FW/1;]
Dalvik/1.6.0 (Linux; U; Android 4.4.4; Z987 Build/KTU84P) [FBAN/Orca-Android;FBAV/44.0.0.8.52;FBPN/com.facebook.orca;FBLC/en_US;FBBV/16048044;FBCR/cricket;FBMF/zte;FBBD/zte;FBDV/Z987;FBSV/4.4.4;FBCA/armeabi-v7a:armeabi;FBDM/{density=2.0,width=720,height=1184};FB_FW/1;]
[FBAN/FB4A;FBAV/177.0.0.49.105;FBBV/114406492;FBDM/{density=2.625,width=1080,height=1920};FBLC/en_US;FBRV/0;FBCR/AIS;FBMF/samsung;FBBD/samsung;FBPN/com.facebook.katana;FBDV/SM-N920C;FBSV/7.0;FBBK/1;FBOP/19;FBCA/armeabi-v7a:armeabi;]
Browser Dalvik/2.1.0 (Linux; U; Android 8.1.0; MI 5X MIUI/V10.3.1.0.ODBCNXM) [FBAN/Orca-Android;FBAV/220.0.0.20.121;FBPN/com.facebook.orca;FBLC/en_US;FBBV/159507224;FBCR/Ooredoo;FBMF/Xiaomi;FBBD/xiaomi;FBDV/MI 5X;FBSV/8.1.0;FBCA/arm64-v8a:null;FBDM/{density=3.0,width=1080,height=1920};FB_FW/1;]
Dalvik/2.1.0 (Linux; U; Android 8.0.0; SM-G950U Build/R16NW) [FBAN/Orca-Android;FBAV/220.0.0.20.121;FBPN/com.facebook.orca;FBLC/en_US;FBBV/159507260;FBCR/MegaFon;FBMF/samsung;FBBD/samsung;FBDV/SM-G950U;FBSV/8.0.0;FBCA/armeabi-v7a:armeabi;FBDM/{density=4.0,width=1440,height=2768};FB_FW/1;] FBBK/1
Dalvik/2.1.0 (Linux; U; Android 5.1.1; SM-G925F Build/JLS36C) [FBAN/FB4A;FBAV/175.0.0.40.97;FBPN/com.facebook.katana;FBLC/vi_VN;FBBV/111983758;FBCR/Viettel Telecom;FBMF/samsung;FBBD/samsung;FBDV/SM-G925F;FBSV/5.1.1;FBCA/x86:armeabi-v7a;FBDM/{density=1.5,width=1280,height=720};FB_FW/1;]
Dalvik/2.1.0 (Linux; U; Android 7.1.2; SM-N9005 Build/NJH47F) [FBAN/Orca-Android;FBAV/230.0.0.12.117;FBPN/com.facebook.orca;FBLC/en_EG;FBBV/169378254;FBCR/Android;FBMF/samsung;FBBD/samsung;FBDV/SM-N9005;FBSV/7.1.2;FBCA/x86:armeabi-v7a;FBDM/{density=1.5,width=720,height=1280};FB_FW/1;]
FBAN/PAAA;FBAV/237.1.0.48.121;FBDM/{density=3.0,width=1080,height=1812};FBLC/en_US;FBBV/181649608;FB_FW/2;FBSN/Android;FBCR/TELCEL;FBMF/HUAWEI;FBBD/HUAWEI;FBDV/HUAWEI NXT-L09;FBSV/7.0;FBCA/armeabi-v7a:armeabi;]
Dalvik/2.1.0 (Linux; U; Android 8.1.0; CPH1909 Build/O11019) [FBAN/Orca-Android;FBAV/241.0.0.17.116;FBPN/com.facebook.orca;FBLC/th_TH;FBBV/182747440;FBCR/TRUE-H;FBMF/OPPO;FBBD/OPPO;FBDV/CPH1909;FBSV/8.1.0;FBCA/armeabi-v7a:armeabi;FBDM/{density=2.0,width=1424,height=720};FB_FW/1;] FBBK/1
FBAN/FB4A;FBAV/245.0.0.39.118;FBBV/ 180475968:FBDM/ (density=2.0,width=720,height=1280}; FBLC/ es_LA;FBRV/181817659FBCR/TELCELFBMF/ Hisense;FBBD/Hisense;FBPN/ com.facebook.katanaFBDV/Hisense Hi 3FBSV/7.0;FBBK/1;FBOP/1;FBCAarmeabi-v7a:armeabi] Cookie f5TE*****k
[FBAN/FB4A;FBAV/245.0.0.39.118;FBBV/ 180475968;FBDM/ (density=2.0,width=720,height=1280}; FBLC/ es_LA;FBRV/181817659FBCR/TELCELFBMF/ Hisense;FBBD/Hisense;FBPN/ com.facebook.katana;FBDV/Hisense Hi 3;FBSV/7.0;FBOP/1;FBCA/armeabi-v7a:armeabi]
[FBAN/FB4A;FBAV/245.0.0.39.118; FBBV/180475968;FBDM/ (density=2.0,width=720,height=1280};FBLC/ es_LA;FBRV/ 181817659;FBCR/TELCEL,FBMF/ Hisense;FBBD/Hisense;FBPN/ com.facebook.katana;FBDV/Hisense Hi 3;FBSV/7.0;FBOP/1;FBCA/armeabi-v7a:armeabi]
[FBAN/FB4A;FBAV/245.0.0.39.118; FBBV/180475968;FBDM/ (density=2.0,width=720,height=1280};FBLC/ es_LA;FBRV/ 181817659;FBCR/TELCEL,FBMF/ Hisense;FBBD/Hisense;FBPN/ com.facebook.katana;FBDV/HisenseHi3;FBSV/7.0;FBOP/1;FBCA/armeabi-v7a:armeabi]
Mozilla/5.0 (Linux; Android 8.0.0; moto g(6) play Build/OPPS27.91-143-2; wv) AppleWebKit/537.36 (KHTML, like Gecko) Version/4.0 Chrome/76.0.3809.89 Mobile Safari/537.36 [FBAN/FB4A;FBAV/233.0.0.36.117;FBBV/166104954;FBDM/{density=2.0,width=720,height=1344};FBLC/es_LA;FBRV/167107722;FB_FW/2;FBCR/Movistar;FBMF/motorola;FBBD/motorola;FBPN/com.facebook.katana;FBDV/moto g(6) play;FBSV/8.0.0;FBOP/1;FBCA/armeabi-v7a:armeabi;] WL3s********************
[FBAN/FB4A;FBAV/247.0.0.42.116;FBBV/182642072;FBDM/{density=2.625,width=1080,height=2131};FBLC/en_US;FBRV/184895505;FBCR/GLOBE;FBMF/samsung;FBBD/samsung;FBPN/com.facebook.katana;FBDV/SM-A505GN;FBSV/9;FBOP/19;FBCA/arm64-v8a:;] Cookie L6He********************
Dalvik/2.1.0 (Linux; U; Android 9; SM-A205GN Build/PPR1.180610.011) [FBAN/Orca-Android;FBAV/242.0.0.15.119;FBPN/com.facebook.orca;FBLC/en_PH;FBBV/184324652;FBCR/TM;FBMF/samsung;FBBD/samsung;FBDV/SM-A205GN;FBSV/9;FBCA/arm64-v8a:null;FBDM/
Dalvik/2.1.0 (Linux; U; Android 9; SM-A505GN Build/PPR1.180610.011) [FBAN/Orca-Android;FBAV/241.0.0.17.116;FBPN/com.facebook.orca;FBLC/en_PH;FBBV/182747450;FBCR/GLOBE;FBMF/samsung;FBBD/samsung;FBDV/SM-A505GN;FBSV/9;FBCA/arm64-v8a:null;FBDM/{density=2.625,width=1080,height=2131};FB_FW/1;] FBBK/1 Cookie VaHe******************** Edit
Dalvik/2.1.0 (Linux; U; Android 9; SM-A505GN Build/PPR1.180610.011) [FBAN/Orca-Android;FBAV/241.0.0.17.116;FBPN/com.facebook.orca;FBLC/en_PH;FBBV/182747450;FBCR/GLOBE;FBMF/samsung;FBBD/samsung;FBDV/SM-A505GN;FBSV/9;FBCA/arm64-v8a:null;FBDM/{density=2.625,width=1080,height=2131};FB_FW/1;] FBBK/1
Browser [FBAN/FB4A;FBAV/247.0.0.42.116;FBBV/182642072;FBDM/{density=2.625,width=1080,height=2131};FBLC/en_US;FBRV/184895505;FBCR/GLOBE;FBMF/samsung;FBBD/samsung;FBPN/com.facebook.katana;FBDV/SM-A505GN;FBSV/9;FBOP/19;FBCA/arm64-v8a:;]
Dalvik/2.1.0 (Linux; U; Android 9; SM-A205GN Build/PPR1.180610.011) [FBAN/Orca-Android;FBAV/242.0.0.15.119;FBPN/com.facebook.orca;FBLC/en_PH;FBBV/184324652;FBCR/TM;FBMF/samsung;FBBD/samsung;FBDV/SM-A205GN;FBSV/9;FBCA/arm64-v8a:null;FBDM/{density=1.75,width=720,height=1423};FB_FW/1;] FBBK/1
Mozilla/5.0 (Linux; Android 9; SM-A505GN Build/PPR1.180610.011; wv) AppleWebKit/537.36 (KHTML, like Gecko) Version/4.0 Chrome/78.0.3904.108 Mobile Safari/537.36 Dalvik/2.1.0 (Linux; U; Android 9; SM-A505GN Build/PPR1.180610.011) [FBAN/Orca-Android;FBAV/243.0.0.12.117;FBPN/com.facebook.orca;FBLC/en_PH;FBBV/185139851;FBCR/GLOBE;FBMF/samsung;FBBD/samsung;FBDV/SM-A505GN;FBSV/9;FBCA/arm64-v8a:null;FBDM/{density=2.625,width=1080,height=2131};FB_FW/1;] Cookie rr1c******************** Edit
Dalvik/2.1.0 (Linux; U; Android 9; SM-A205GN Build/PPR1.180610.011) [FBAN/Orca-Android;FBAV/242.0.0.15.119;FBPN/com.facebook.orca;FBLC/en_PH;FBBV/184324652;FBCR/TM;FBMF/samsung;FBBD/samsung;FBDV/SM-A205GN;FBSV/9;FBCA/arm64-v8a:null;FBDM/{density=1.75,width=720,height=1423};FB_FW/1;]
[FBAN/FB4A;FBAV/245.0.0.39.118;FBBV/180475968;FBDM/{density=1.7,width=720,height=1280};FBLC/es_LA;FBRV/0;FB_FW/2;FBCR/UNEFON 4G;FBMF/motorola;FBBD/motorola;FBPN/com.facebook.katana;FBDV/Moto C Plus;FBSV/7.0;FBOP/1;FBCA/armeabi-v7a:armeabi;]
FBAN/FB4A;FBAV/245.0.0.39.118;FBBV/180475968;FBDM/{density=1.7,width=720,height=1280};FBLC/es_LA;FBRV/0;FBCR/;FBMF/motorola;FBBD/motorola;FBPN/com.facebook.katana;FBDV/Moto C Plus;FBSV/7.0;FBOP/1;FBCA/armeabi-v7a:armeabi;]
[FBAN/FB4A;FBAV/248.1.0.44.116;FBBV/184540730;FBDM/{density=2.0,width=720,height=1196};FBLC/es_ES;FBRV/0;FBCR/HOME;FBMF/LGE;FBBD/lge;FBPN/com.facebook.katana;FBDV/LM-X210;FBSV/7.1.2;FBOP/19;FBCA/armeabi-v7a:armeabi;]
IP 187.237.14.246 Navegador [FBAN/FB4A;FBAV/248.1.0.44.116;FBBV/184540727;FBDM/{density=1.5,width=480,height=854};FBLC/es_ES;FBRV/186600517;FBCR/TELCEL;FBMF/F2_Mobile;FBBD/F2_Mobile;FBPN/com.facebook.katana;FBDV/F80&#039;S RETRO;FBSV/4.4.2;FBBK/1;FBOP/1;FBCA/armeabi-v7a:armeabi;] Cookie _un1********************
Dalvik/2.1.0 (Linux; U; Android 8.0.0; AGS2-L09 Build/HUAWEIAGS2-L09) [FBAN/Orca-Android;FBAV/238.0.0.14.120;FBPN/com.facebook.orca;FBLC/hu_HU;FBBV/179092826;FBCR/null;FBMF/HUAWEI;FBBD/HUAWEI;FBDV/AGS2-L09;FBSV/8.0.0;FBCA/armeabi-v7a:armeabi;FBDM/{density=2.0,width=1200,height=1852};FB_FW/1;]
Created Nov 16, 2019, 6:18 AM Updated Dec 15, 2019, 9:24 PM IP Address 204.14.73.22 Browser Dalvik/2.1.0 (Linux; U; Android 8.1.0; LML713DL Build/OPM1.171019.019) [FBAN/Orca-Android;FBAV/244.0.0.16.236;FBPN/com.facebook.orca;FBLC/en_US;FBBV/187555057;FBCR/null;FBMF/LGE;FBBD/lge;FBDV/LML713DL;FBSV/8.1.0;FBCA/armeabi-v7a:armeabi;FBDM/{density=2.625,width=1080,height=2034};FB_FW/1;] FBBK/1 Cookie 5tz2********************
Dalvik/2.1.0 (Linux; U; Android 8.1.0; LML713DL Build/OPM1.171019.019) [FBAN/Orca-Android;FBAV/244.0.0.16.236;FBPN/com.facebook.orca;FBLC/en_US;FBBV/187555057;FBCR/null;FBMF/LGE;FBBD/lge;FBDV/LML713DL;FBSV/8.1.0;FBCA/armeabi-v7a:armeabi;FBDM/{density=2.625,width=1080,height=2034};FB_FW/1;]
Browser Dalvik/2.1.0 (Linux; U; Android 8.1.0; LML713DL Build/OPM1.171019.019) [FBAN/Orca-Android;FBAV/244.0.0.16.236;FBPN/com.facebook.orca;FBLC/en_US;FBBV/187555057;FBCR/null;FBMF/LGE;FBBD/lge;FBDV/LML713DL;FBSV/8.1.0;FBCA/armeabi-v7a:armeabi;FBDM/{density=2.625,width=1080,height=2034};FB_FW/1;] FBBK/1
[FBAN/FB4A;FBAV/243.0.0.47.108;FBBV/178056661;FBDM/{density=3.0,width=1080,height=2139};FBLC/en_GB;FBRV/179063150;FBCR/3;FBMF/HUAWEI;FBBD/HONOR;FBPN/com.facebook.katana;FBDV/HRY-LX1T;FBSV/9;FBOP/1;FBCA/arm64-v8a:;]
&#039;[FBAN/FB4A;FBAV/243.0.0.47.108;FBBV/178056661;FBDM/{density=3.0,width=1080,height=2175};FBLC/en_GB;FBRV/179063150;FBCR/3;FBMF/samsung;FBBD/samsung;FBPN/com.facebook.katana;FBDV/SM-G960F;FBSV/9;FBOP/19;FBCA/arm64-v8a:;]&#039;
Browser Dalvik/2.1.0 (Linux; U; Android 8.1.0; LML414DL Build/OPM1.171019.019) [FBAN/Orca-Android;FBAV/231.0.0.25.121;FBPN/com.facebook.orca;FBLC/en_US;FBBV/170889107;FBCR/null;FBMF/LGE;FBBD/lge;FBDV/LML414DL;FBSV/8.1.0;FBCA/armeabi-v7a:armeabi;FBDM/{density=2.0,width=720,height=1196};FB_FW/1;] FBBK/1 Cookie f8z4********************
PPR1.180610.011Dalvik/2.1.0 (Linux; U; Android 9; CPH1987 Build/PPR1.180610.011) [FBAN/Orca-Android;FBAV/244.0.0.16.236;FBPN/com.facebook.orca;FBLC/vi_VN;FBBV/187555175;FBCR/VIETTEL;FBMF/OPPO;FBBD/OPPO;FBDV/CPH1987;FBSV/9;FBCA/armeabi-v7a:armeabi;FBDM/{density=3.0,width=1080,height=2196};FB_FW/1;] FBBK/1
Dalvik/2.1.0 (Linux; U; Android 9; CPH1987 Build/PPR1.180610.011) [FBAN/Orca-Android;FBAV/244.0.0.16.236;FBPN/com.facebook.orca;FBLC/vi_VN;FBBV/187555175;FBCR/VIETTEL;FBMF/OPPO;FBBD/OPPO;FBDV/CPH1987;FBSV/9;FBCA/armeabi-v7a:armeabi;FBDM/{density=3.0,width=1080,height=2196};FB_FW/1;] FBBK/1
[FBAN/FB4A;FBAV/222.0.0.48.113;FBBV/155323366;FBDM/{density=2.0,width=720,height=1360};FBLC/sr_RS;FBRV/156625696;FBCR/mt:s;FBMF/HUAWEI;FBBD/HUAWEI;FBPN/com.facebook.katana;FBDV/LDN-L21;FBSV/8.0.0;FBOP/19;FBCA/armeabi-v7a:armeabi;]
Dalvik/2.1.0 (Linux; U; Android 7.0; Hisense Hi  3 Build/NRD9OM) [FBAN/FB4A;FBAV/245.0.0.39.118;FBPN/ com.facebook.katana;FBLC/es_MX;FBBV/ 180475968;FBCR/TELCEL;FBMF/Hisense;FBBD/ Hisense;FBDV/Hisense Hi 3;FBSV/7.0;FBCA/armeabi- v7a:armeabi;FBDM/ {density=2.0,width=720height=1280};FB_FW/1;FBRV/181817659;] FBBK/1
[FBAN/FB4A;FBAV/245.0.0.39.118;FBPN/ com.facebook.katana;FBLC/es_MX;FBBV/ 180475968;FBCR/TELCEL;FBMF/Hisense;FBBD/ Hisense;FBDV/Hisense Hi 3;FBSV/7.0;FBCA/armeabi- v7a:armeabi;FBDM/ {density=2.0,width=720height=1280};FB_FW/1;FBRV/181817659;] FBBK/1
Dalvik/2.1.0;(Linux;U;Android 7.0;Hisense-Hi-3;Build/NRD9OM) [FBAN/FB4A;FBAV/245.0.0.39.118;FBPN/ com.facebook.katana;FBLC/es_MX;FBBV/180475968;FBCR/TELCEL;FBMF/Hisense;FBBD/Hisense;FBDV/Hisense-Hi-3;FBSV/7.0;FBCA/armeabi-v7a:armeabi;FBDM/{density=2.0,width=720,height=1280};FB_FW/1;FBRV/181817659;] FBBK/1
FBAN/FB4A;FBAV/253.0.0.28.116;FBBV/193013937;FBDM/{density=2.625,width=1080,height=1794};FBLC/en_US;FBRV/0;FBCR/Verizon;FBMF/Google;FBBD/google;FBPN/com.facebook.katana;FBDV/Pixel 2;FBSV/10;FBBK/1;FBOP/1;FBCA/arm64-v8a:;
IP Address	2600:1005:b14c:91f9:7ec3:cbeb:1d97:bca9 Browser	Dalvik/2.1.0 (Linux; U; Android 9; LM-V405 Build/PKQ1.190202.001) [FBAN/FB4A;FBAV/252.0.0.22.355;FBPN/com.facebook.katana;FBLC/en_US;FBBV/191850142;FBCR/Verizon ;FBMF/LGE;FBBD/lge;FBDV/LM-V405;FBSV/9;FBCA/arm64-v8a:null;FBDM/{density=2.625,width=1080,height=2147};FB_FW/1;FBRV/0;]
[FBAN/Orca-Android;FBAV/248.0.0.7.127;FBPN/com.facebook.orca;FBLC/pl_PL;FBBV/194293860;FBCR/PLAY;FBMF/LGE;FBBD/lge;FBDV/LG-M250;FBSV/7.0;FBCA/armeabi-v7a:armeabi;FBDM/{density=2.0,width=720,height=1193};FB_FW/1;] FBBK/1
Navegador Dalvik/2.1.0 (Linux, U; Android 7.0, Hisense Hi 3 Build/NRD90M) [FBAN/Orca-Android,FBAV/ 2391017119 FBPN com.facebook.orca FBLC/es MXFBBV 180535023 FBCR TELCEL, FBMF/Hisense,FBBD/ Hisense FBDV/Hisense Hi 3:FBSV/7.0FBCA / armeabi- v7a armeabi:FBDM (density=20,width=720 height=1280):FB_FW/1:1
Navegador Dalvik/2.1.0 (Linux, U; Android 7.0, HisenseHi3 Build/NRD90M) [FBAN/Orca-Android,FBAV/ 239.10.17.119,FBPN com.facebook.orca FBLC/es MXFBBV 180535023 FBCR TELCEL, FBMF/Hisense,FBBD/ Hisense FBDV/Hisense Hi 3:FBSV/7.0FBCA / armeabi- v7a armeabi:FBDM (density=20,width=720 height=1280):FB_FW/1:1
Navegador [FBAN/FB4A;FBAV/245.0.0.39.118;FBBV/ 180475968:FBDM/ (density=2.0,width=720,height=1280}; FBLC/ es_LA;FBRV/181817659FBCR/TELCELFBMF/ Hisense;FBBD/Hisense;FBPN/ com.facebook.katanaFBDV/Hisense Hi 3FBSV/7.0;FBBK/1;FBOP/1;FBCAarmeabi-v7a:armeabi]
FBAN/FB4A;FBAV/245.0.0.39.118;FBBV/180475968,FBDM/(density=2.0,width=720,height=1280); FBLC/es_LA;FBRV/181817659,FBCR/TELCEL,FBMF/Hisense,FBBD/Hisense;FBPN/com.facebook.katana,FBDV/Hisense Hi 3,FBSV/7.0;FBBK/1;FBOP/1;FBCA/armeabi-v7a:armeabi]
[FBAN/FB4A;FBAV/256.0.0.39.117;FBBV/196542502;FBDM/{density=3.0,width=1080,height=2175};FBLC/en_US;FBRV/197499199;FBCR/Freedom;FBMF/samsung;FBBD/samsung;FBPN/com.facebook.katana;FBDV/SM-G950W;FBSV/9;FBOP/19;FBCA/arm64-v8a:;]
[FBAN/FB4A;FBAV/251.0.0.31.111;FBBV/188827981;FBDM/{density=1.5,width=540,height=960};FBLC/es_LA;FBRV/192128667;FBCR/TELCEL;FBMF/samsung;FBBD/samsung;FBPN/com.facebook.katana;FBDV/SM-G531H;FBSV/5.1.1;FBOP/1;FBCA/armeabi-v7a:armeabi;]
[FBAN/FB4A;FBAV/255.0.0.33.121;FBBV/195354898;FBDM/{density=2.75,width=1080,height=2088};FBLC/en_US;FBRV/197167215;FBCR/Vodafone AU;FBMF/Google;FBBD/google;FBPN/com.facebook.katana;FBDV/Pixel 3a;FBSV/10;FBOP/1;FBCA/arm64-v8a:;]
[FBAN/FB4A;FBAV/256.0.0.39.117;FBBV/196542500;FBDM/{density=2.0,width=720,height=1371};FBLC/en_US;FBRV/198223028;FBCR/Metro by T-Mobile;FBMF/motorola;FBBD/motorola;FBPN/com.facebook.katana;FBDV/moto g(7) power;FBSV/9;FBOP/1;FBCA/arm64-v8a:;]
[FBAN/FB4A;FBAV/77.0.0.20.66;FBBV/30034615;FBDM/{density=1.5,width=480,height=800};FBLC/ar_AR;FBCR/etisalat;FBMF/samsung;FBBD/samsung;FBPN/com.facebook.katana;FBDV/GT-I9060I;FBSV/4.4.4;FBOP/1;FBCA/armeabi-v7a:armeabi;]
[FBAN/FB4A;FBAV/256.0.0.39.117;FBBV/196542473;FBDM/{density=1.5,width=480,height=854};FBLC/es_ES;FBRV/0;FBCR/TELCEL;FBMF/alps;FBBD/Bmobile;FBPN/com.facebook.katana;FBDV/AX1035;FBSV/5.1;FBOP/1;FBCA/armeabi-v7a:armeabi;]
[FBAN/FB4A;FBAV/257.0.0.44.118;FBBV/197851411;FBDM/{density=2.625,width=1080,height=2034};FBLC/en_US;FBRV/198929583;FBCR/Sprint;FBMF/LGE;FBBD/lge;FBPN/com.facebook.katana;FBDV/LM-Q720;FBSV/9;FBOP/19;FBCA/arm64-v8a:;]
[FBAN/FB4A;FBAV/256.0.0.39.117;FBBV/196542486;FBDM/{density=1.75,width=720,height=1396};FBLC/ro_RO;FBRV/198377061;FBCR/BASE | Lycamobile;FBMF/samsung;FBBD/samsung;FBPN/com.facebook.katana;FBDV/SM-J415FN;FBSV/9;FBOP/19;FBCA/armeabi-v7a:armeabi;]
[FBAN/FB4A;FBAV/256.0.0.39.117;FBBV/196542502;FBDM/{density=3.0,width=1080,height=2029};FBLC/ro_RO;FBRV/198310449;FBCR/EE;FBMF/samsung;FBBD/samsung;FBPN/com.facebook.katana;FBDV/SM-G975F;FBSV/10;FBOP/19;FBCA/arm64-v8a:;]
[FBAN/FB4A;FBAV/256.0.0.39.117;FBBV/196542486;FBDM/{density=1.75,width=720,height=1382};FBLC/en_GB;FBRV/198200879;FBCR/O2 - UK;FBMF/samsung;FBBD/samsung;FBPN/com.facebook.katana;FBDV/SM-A105FN;FBSV/9;FBOP/19;FBCA/armeabi-v7a:armeabi;]
[FBAN/FB4A;FBAV/257.0.0.44.118;FBBV/197851400;FBDM/{density=2.0,width=720,height=1280};FBLC/ro_RO;FBRV/199381886;FBCR/Vodafone RO;FBMF/samsung;FBBD/samsung;FBPN/com.facebook.katana;FBDV/SM-J530F;FBSV/9;FBOP/19;FBCA/armeabi-v7a:armeabi;]
[FBAN/FB4A;FBAV/257.0.0.44.118;FBBV/197851411;FBDM/{density=4.0,width=1440,height=2706};FBLC/ro_RO;FBRV/199566458;FBCR/orange;FBMF/samsung;FBBD/samsung;FBPN/com.facebook.katana;FBDV/SM-G975F;FBSV/10;FBOP/19;FBCA/arm64-v8a:;]
[FBAN/FB4A;FBAV/256.0.0.39.117;FBBV/196542476;FBDM/{density=3.0,width=1080,height=1798};FBLC/en_US;FBRV/198442689;FBCR/T-Mobile;FBMF/LGE;FBBD/lge;FBPN/com.facebook.katana;FBDV/LG-TP450;FBSV/7.0;FBBK/1;FBOP/1;FBCA/armeabi-v7a:armeabi;]
[FBAN/FB4A;FBAV/258.0.0.34.119;FBBV/199294418;FBDM/{density=1.3312501,width=800,height=1216};FBLC/en_US;FBRV/0;FBCR/BITE;FBMF/LENOVO;FBBD/Lenovo;FBPN/com.facebook.katana;FBDV/Lenovo TB-8504X;FBSV/7.1.1;FBOP/1;FBCA/armeabi-v7a:armeabi;]
[FBAN/FB4A;FBAV/257.0.0.44.118;FBBV/197851411;FBDM/{density=2.625,width=1080,height=2094};FBLC/en_GB;FBRV/199674405;FBCR/Virgin;FBMF/samsung;FBBD/samsung;FBPN/com.facebook.katana;FBDV/SM-N9500;FBSV/9;FBOP/19;FBCA/arm64-v8a:;]
[FBAN/FB4A;FBAV/79.0.0.18.71;FBBV/31009847;FBDM/{density=1.5,width=480,height=854};FBLC/es_LA;FBCR/entel;FBMF/HUAWEI;FBBD/HUAWEI;FBPN/com.facebook.katana;FBDV/HUAWEI LUA-L21;FBSV/5.1;FBOP/1;FBCA/armeabi-v7a:armeabi;]
Dalvik/2.1.0 (Linux; U; Android 9; POT-LX1 Build/HUAWEIPOT-L01) [FBAN/Orca-Android;FBAV/251.0.0.12.117;FBPN/com.facebook.orca;FBLC/en_GB;FBBV/197803941;FBCR/O2-CZ;FBMF/HUAWEI;FBBD/HUAWEI;FBDV/POT-LX1;FBSV/9;FBCA/arm64-v8a:null;FBDM/{density=2.0,width=720,height=1426};FB_FW/1;]
[FBAN/FB4A;FBAV/259.0.0.28.115;FBBV/199867660;FBDM/{density=2.0,width=720,height=1406};FBLC/en_GB;FBRV/0;FBCR/3;FBMF/samsung;FBBD/samsung;FBPN/com.facebook.katana;FBDV/SM-A202F;FBSV/9;FBOP/19;FBCA/arm64-v8a:;]
[FBAN/FB4A;FBAV/258.0.0.34.119;FBBV/199294666;FBDM/{density=3.0,width=1080,height=1776};FBLC/en_GB;FBRV/200600534;FBCR/;FBMF/Sony;FBBD/Sony;FBPN/com.facebook.katana;FBDV/F8331;FBSV/8.0.0;FBOP/19;FBCA/armeabi-v7a:armeabi;]
[FBAN/FB4A;FBAV/258.0.0.34.119;FBBV/199294743;FBDM/{density=3.0,width=1080,height=2107};FBLC/en_GB;FBRV/200600534;FBCR/3;FBMF/HUAWEI;FBBD/HUAWEI;FBPN/com.facebook.katana;FBDV/MAR-LX1A;FBSV/9;FBOP/1;FBCA/arm64-v8a:;]
[FBAN/FB4A;FBAV/258.0.0.34.119;FBBV/199294464;FBDM/{density=2.25,width=720,height=1280};FBLC/en_GB;FBRV/200290264;FBCR/O2 - UK;FBMF/Blackview;FBBD/Blackview;FBPN/com.facebook.katana;FBDV/A7;FBSV/7.0;FBOP/1;FBCA/armeabi-v7a:armeabi;]
[FBAN/FB4A;FBAV/258.0.0.34.119;FBBV/199294743;FBDM/{density=3.0,width=1080,height=2032};FBLC/en_GB;FBRV/200489847;FBCR/O2 - UK;FBMF/HUAWEI;FBBD/HONOR;FBPN/com.facebook.katana;FBDV/LLD-L31;FBSV/9;FBOP/1;FBCA/arm64-v8a:;]
[FBAN/FB4A;FBAV/245.0.0.39.118;FBBV/180475978;FBDM/{density=2.25,width=720,height=1332};FBLC/es_ES;FBRV/181817659;FBCR/Movistar;FBMF/WIKO;FBBD/WIKO;FBPN/com.facebook.katana;FBDV/W-V600;FBSV/8.1.0;FBOP/19;FBCA/armeabi-v7a:armeabi;]
[FBAN/FB4A;FBAV/259.0.0.36.115;FBBV/200359555;FBDM/{density=3.0,width=1080,height=2016};FBLC/nb_NO;FBRV/201364573;FBCR/Telia N;FBMF/Sony;FBBD/Sony;FBPN/com.facebook.katana;FBDV/H8266;FBSV/10;FBOP/19;FBCA/arm64-v8a:;]
Dalvik/2.1.0 (Linux; U; Android 10; SM-N975U Build/QP1A.190711.020) [FBAN/Orca-Android;FBAV/253.0.0.17.117;FBPN/com.facebook.orca;FBLC/en_US;FBBV/200372525;FBCR/U.S. Cellular;FBMF/samsung;FBBD/samsung;FBDV/SM-N975U;FBSV/10;FBCA/arm64-v8a:null;FBDM/{density=3.5,width=1440,height=2759};FB_FW/1;] FBBK/1
[FBAN/FB4A;FBAV/253.0.0.28.116;FBBV/193013911;FBDM/{density=2.0,width=720,height=1184};FBLC/en_US;FBRV/194773382;FBCR/airtel;FBMF/motorola;FBBD/motorola;FBPN/com.facebook.katana;FBDV/XT1706;FBSV/6.0;FBOP/1;FBCA/armeabi-v7a:armeabi;]
[FBAN/FB4A;FBAV/258.0.0.34.119;FBBV/199294743;FBDM/{density=2.625.0,width=1080,height=2198};FBLC/ko_KR;FBRV/0;FBCR/;FBMF/samsung;FBBD/samsung;FBPN/com.facebook.katana;FBDV/SM-A908N;FBSV/9;FBOP/1;FBCA/arm64-v8a:;]
[FBAN/FB4A;FBAV/260.0.0.42.118;FBBV/201518813;FBDM/{density=2.0,width=720,height=1280};FBLC/en_US;FBRV/202499965;FBCR/Verizon ;FBMF/samsung;FBBD/Verizon;FBPN/com.facebook.katana;FBDV/SM-J727V;FBSV/8.1.0;FBOP/1;FBCA/armeabi-v7a:armeabi;]
[FBAN/FB4A;FBAV/262.0.0.29.117;FBBV/203434615;FBDM/{density=2.625,width=1080,height=2069};FBLC/en_US;FBRV/0;FBCR/Sprint;FBMF/samsung;FBBD/samsung;FBPN/com.facebook.katana;FBDV/SM-N975U;FBSV/10;FBOP/19;FBCA/arm64-v8a:;]
[FBAN/FB4A;FBAV/261.0.0.52.126;FBBV/202681565;FBDM/{density=2.0,width=720,height=1352};FBLC/it_IT;FBRV/203912779;FBCR/ho.;FBMF/asus;FBBD/asus;FBPN/com.facebook.katana;FBDV/ASUS_X00RD;FBSV/8.0.0;FBOP/19;FBCA/armeabi-v7a:armeabi;]
[FBAN/FB4A;FBAV/262.0.0.34.117;FBBV/203997198;FBDM/{density=3.0,width=1080,height=2120};FBLC/en_US;FBRV/0;FBCR/Verizon ;FBMF/motorola;FBBD/motorola;FBPN/com.facebook.katana;FBDV/moto z4;FBSV/9;FBOP/1;FBCA/arm64-v8a:;]
[FBAN/FB4A;FBAV/262.0.0.34.117;FBBV/203997197;FBDM/{density=2.25,width=720,height=1393};FBLC/bg_BG;FBRV/0;FBCR/A1 BG;FBMF/motorola;FBBD/motorola;FBPN/com.facebook.katana;FBDV/motorola one macro;FBSV/9;FBOP/1;FBCA/arm64-v8a:;]
[FBAN/FB4A;FBAV/262.0.0.34.117;FBBV/203997198;FBDM/{density=3.0,width=1080,height=2024};FBLC/en_US;FBRV/204600260;FBCR/Sprint;FBMF/samsung;FBBD/samsung;FBPN/com.facebook.katana;FBDV/SM-G973U;FBSV/10;FBOP/19;FBCA/arm64-v8a:;]
[FBAN/FB4A;FBAV/262.0.0.34.117;FBBV/203997197;FBDM/{density=2.25,width=720,height=1393};FBLC/bg_BG;FBRV/204734771;FBCR/A1 BG #STAYHOME;FBMF/motorola;FBBD/motorola;FBPN/com.facebook.katana;FBDV/motorola one macro;FBSV/9;FBOP/1;FBCA/arm64-v8a:;]
[FBAN/FB4A;FBAV/262.0.0.34.117;FBBV/203997168;FBDM/{density=3.0,width=1080,height=1812};FBLC/ru_RU;FBRV/204734771;FBCR/Vodafone UA;FBMF/HUAWEI;FBBD/HUAWEI;FBPN/com.facebook.katana;FBDV/HUAWEI VNS-L21;FBSV/7.0;FBOP/19;FBCA/armeabi-v7a:armeabi;]
[...]
[FBAN/FB4A;FBAV/269.0.0.50.127;FBBV/212782869;FBDM/{density=2.0,width=1200,height=1831};FBLC/en_US;FBRV/213932784;FBCR/T-Mobile;FBMF/LGE;FBBD/lge;FBPN/com.facebook.katana;FBDV/LG-V521;FBSV/7.0;FBOP/1;FBCA/armeabi-v7a:armeabi;]
[FBAN/FB4A;FBAV/269.0.0.50.127;FBBV/212783074;FBDM/{density=2.625,width=1080,height=2069};FBLC/en_US;FBRV/0;FBCR/Verizon ;FBMF/samsung;FBBD/samsung;FBPN/com.facebook.katana;FBDV/SM-N976V;FBSV/10;FBOP/1;FBCA/arm64-v8a:;]
[FBAN/FB4A;FBAV/269.0.0.50.127;FBBV/212783047;FBDM/{density=2.0,width=720,height=1424};FBLC/en_US;FBRV/0;FBCR/airtel;FBMF/LAVA;FBBD/LAVA;FBPN/com.facebook.katana;FBDV/Z92;FBSV/8.1.0;FBOP/11;FBCA/armeabi-v7a:armeabi;]
[FBAN/FB4A;FBAV/266.0.0.56.124;FBBV/209027750;FBDM/{density=2.0,width=720,height=1344};FBLC/en_US;FBRV/0;FBCR/Jio 4G;FBMF/LAVA;FBBD/LAVA;FBPN/com.facebook.katana;FBDV/Z81;FBSV/8.1.0;FBOP/1;FBCA/armeabi-v7a:armeabi;]
[FBAN/FB4A;FBAV/269.0.0.50.127;FBBV/212783075;FBDM/{density=3.375,width=1080,height=2058};FBLC/en_US;FBRV/214205475;FBCR/AT&amp-T;FBMF/samsung;FBBD/samsung;FBPN/com.facebook.katana;FBDV/SM-G960U;FBSV/10;FBOP/19;FBCA/arm64-v8a:;]
[FBAN/FB4A;FBAV/269.0.0.50.127;FBBV/212783074;FBDM/{density=2.625,width=1080,height=2047};FBLC/en_US;FBRV/214437585;FBCR/Verizon ;FBMF/samsung;FBBD/samsung;FBPN/com.facebook.katana;FBDV/SM-G975U;FBSV/10;FBOP/1;FBCA/arm64-v8a:;]
[FBAN/FB4A;FBAV/263.0.0.46.121;FBBV/205281685;FBDM/{density=4.0,width=1440,height=2768};FBLC/en_US;FBRV/207024646;FBCR/Verizon ;FBMF/samsung;FBBD/samsung;FBPN/com.facebook.katana;FBDV/SM-N960U;FBSV/10;FBOP/1;FBCA/arm64-v8a:;]
[FBAN/FB4A;FBAV/260.0.0.42.118;FBBV/201518826;FBDM/{density=3.375,width=1080,height=2058};FBLC/en_US;FBRV/203119134;FBCR/Verizon ;FBMF/samsung;FBBD/samsung;FBPN/com.facebook.katana;FBDV/SM-G965U;FBSV/10;FBOP/1;FBCA/armeabi-v7a:armeabi;]
[FBAN/FB4A;FBAV/269.0.0.50.127;FBBV/212783074;FBDM/{density=2.75,width=1080,height=2088};FBLC/en_US;FBRV/0;FBCR/Google Fi;FBMF/Google;FBBD/google;FBPN/com.facebook.katana;FBDV/Pixel 3a;FBSV/10;FBOP/1;FBCA/arm64-v8a:;]
[FBAN/FB4A;FBAV/270.0.0.57.127;FBBV/214125778;FBDM/{density=2.25,width=720,height=1332};FBLC/en_US;FBRV/214824289;FBCR/cricket;FBMF/Alcatel;FBBD/TCL;FBPN/com.facebook.katana;FBDV/Alcatel_5008R;FBSV/8.1.0;FBOP/19;FBCA/armeabi-v7a:armeabi;]
[FBAN/FB4A;FBAV/270.0.0.57.127;FBBV/214125792;FBDM/{density=2.625,width=1080,height=2094};FBLC/en_US;FBRV/214521896;FBCR/Sprint;FBMF/samsung;FBBD/samsung;FBPN/com.facebook.katana;FBDV/SM-N950U;FBSV/9;FBOP/19;FBCA/arm64-v8a:;]
[FBAN/FB4A;FBAV/270.0.0.57.127;FBBV/214125792;FBDM/{density=3.0,width=1080,height=2076};FBLC/en_US;FBRV/214902642;FBCR/cricket;FBMF/samsung;FBBD/samsung;FBPN/com.facebook.katana;FBDV/SM-G960U;FBSV/10;FBOP/19;FBCA/arm64-v8a:;]
[FBAN/FB4A;FBAV/269.0.0.50.127;FBBV/212783074;FBDM/{density=2.625,width=1080,height=2094};FBLC/en_US;FBRV/214496621;FBCR/Verizon ;FBMF/samsung;FBBD/samsung;FBPN/com.facebook.katana;FBDV/SM-G965U;FBSV/10;FBOP/1;FBCA/arm64-v8a:;]
[FBAN/FB4A;FBAV/270.0.0.57.127;FBBV/214125759;FBDM/{density=1.0,width=768,height=1024};FBLC/en_US;FBRV/214902642;FBCR/;FBMF/samsung;FBBD/samsung;FBPN/com.facebook.katana;FBDV/SM-T350;FBSV/7.1.1;FBOP/1;FBCA/armeabi-v7a:armeabi;]
[FBAN/FB4A;FBAV/270.0.0.57.127;FBBV/214125792;FBDM/{density=4.0,width=1440,height=2768};FBLC/en_US;FBRV/214646499;FBCR/Extended Network;FBMF/samsung;FBBD/samsung;FBPN/com.facebook.katana;FBDV/SM-N960U1;FBSV/10;FBOP/19;FBCA/arm64-v8a:;]
[FBAN/FB4A;FBAV/270.0.0.57.127;FBBV/214125792;FBDM/{density=2.625,width=2069,height=1080};FBLC/en_US;FBRV/214786616;FBCR/AT&amp-T;FBMF/samsung;FBBD/samsung;FBPN/com.facebook.katana;FBDV/SM-N975U;FBSV/10;FBOP/19;FBCA/arm64-v8a:;]
[FBAN/FB4A;FBAV/270.0.0.57.127;FBBV/214125792;FBDM/{density=2.625,width=1080,height=2094};FBLC/en_US;FBRV/214902642;FBCR/Verizon ;FBMF/samsung;FBBD/samsung;FBPN/com.facebook.katana;FBDV/SM-G955U;FBSV/9;FBOP/1;FBCA/arm64-v8a:;]
[FBAN/FB4A;FBAV/270.0.0.57.127;FBBV/214125792;FBDM/{density=2.625,width=1080,height=2094};FBLC/en_US;FBRV/214824289;FBCR/T-Mobile;FBMF/samsung;FBBD/samsung;FBPN/com.facebook.katana;FBDV/SM-G965U;FBSV/10;FBOP/1;FBCA/arm64-v8a:;]
[FBAN/FB4A;FBAV/270.0.0.57.127;FBBV/214125784;FBDM/{density=3.375,width=1080,height=1998};FBLC/en_US;FBRV/214902642;FBCR/AT&amp-T;FBMF/LGE;FBBD/lge;FBPN/com.facebook.katana;FBDV/LM-Q710.FGN;FBSV/9;FBOP/19;FBCA/armeabi-v7a:armeabi;]
[FBAN/FB4A;FBAV/270.0.0.57.127;FBBV/214125760;FBDM/{density=1.5,width=480,height=854};FBLC/en_US;FBRV/214902642;FBCR/Qlink;FBMF/ZTE;FBBD/ZTE;FBPN/com.facebook.katana;FBDV/N9137;FBSV/7.1.1;FBOP/19;FBCA/armeabi-v7a:armeabi;]
[FBAN/FB4A;FBAV/264.0.0.44.111;FBBV/206636710;FBDM/{density=2.0,width=720,height=1344};FBLC/en_US;FBRV/0;FBCR/Idea - Be Safe;FBMF/GIONEE;FBBD/GIONEE;FBPN/com.facebook.katana;FBDV/GIONEE F205 Pro;FBSV/8.1.0;FBOP/19;FBCA/armeabi-v7a:armeabi;]
[FBAN/FB4A;FBAV/270.1.0.66.127;FBBV/214895087;FBDM/{density=1.5,width=1920,height=1128};FBLC/nl_NL;FBRV/215683036;FBCR/;FBMF/LENOVO;FBBD/Lenovo;FBPN/com.facebook.katana;FBDV/Lenovo TAB 2 A10-70F;FBSV/5.0.1;FBOP/1;FBCA/armeabi-v7a:armeabi;]
[FBAN/FB4A;FBAV/271.0.0.55.109;FBBV/215365690;FBDM/{density=3.0,width=1080,height=2208};FBLC/fr_FR;FBRV/216077496;FBCR/inwi;FBMF/OPPO;FBBD/OPPO;FBPN/com.facebook.katana;FBDV/CPH1989;FBSV/9;FBOP/1;FBCA/arm64-v8a:;]
[FBAN/FB4A;FBAV/266.0.0.64.124;FBBV/209629372;FBDM/{density=3.5,width=1440,height=2792};FBLC/es_LA;FBRV/0;FBCR/Metro by T-Mobile;FBMF/samsung;FBBD/samsung;FBPN/com.facebook.katana;FBDV/SM-G965F;FBSV/10;FBOP/19;FBCA/arm64-v8a:;]
[FBAN/FB4A;FBAV/77.0.0.20.66;FBBV/30034644;FBDM/{density=1.75,width=720,height=1382};FBLC/fr_FR;FBCR/Orange;FBMF/samsung;FBBD/samsung;FBPN/com.facebook.katana;FBDV/SM-A105F;FBSV/9;FBOP/19;FBCA/armeabi-v7a:armeabi;]
[FBAN/FB4A;FBAV/79.0.0.18.71;FBBV/31009794;FBDM/{density=1.5,width=480,height=854};FBLC/es_LA;FBCR/TELCEL;FBMF/TCT;FBBD/TCT;FBPN/com.facebook.katana;FBDV/ALCATEL ONE TOUCH 7042A;FBSV/4.2.2;FBOP/19;FBCA/armeabi-v7a:armeabi;]
[FBAN/FB4A;FBAV/261.0.0.52.126;FBBV/202681576;FBDM/{density=2.625,width=1080,height=2042};FBLC/en_US;FBRV/0;FBCR/T-Mobile;FBMF/samsung;FBBD/samsung;FBPN/com.facebook.katana;FBDV/SM-G973U;FBSV/10;FBOP/1;FBCA/arm64-v8a:;]
[FBAN/FB4A;FBAV/269.0.0.50.127;FBBV/212783075;FBDM/{density=4.0,width=1440,height=2368};FBLC/en_US;FBRV/0;FBCR/Verizon ;FBMF/motorola;FBBD/motorola;FBPN/com.facebook.katana;FBDV/Moto Z (2);FBSV/9;FBOP/1;FBCA/arm64-v8a:;]
[FBAN/FB4A;FBAV/269.0.0.50.127;FBBV/212783051;FBDM/{density=3.0,width=1080,height=2076};FBLC/en_US;FBRV/0;FBCR/Sprint;FBMF/samsung;FBBD/samsung;FBPN/com.facebook.katana;FBDV/SM-G960U;FBSV/8.0.0;FBOP/19;FBCA/armeabi-v7a:armeabi;]
[FBAN/FB4A;FBAV/272.0.0.50.125;FBBV/216845599;FBDM/{density=2.625,width=1080,height=2094};FBLC/en_US;FBRV/217449705;FBCR/Verizon ;FBMF/samsung;FBBD/samsung;FBPN/com.facebook.katana;FBDV/SM-N960U;FBSV/10;FBOP/1;FBCA/arm64-v8a:;]
Dalvik/1.6.0 (Linux; U; Android 4.0.4; GT-I9300 Build/IMM76D) [FBAN/\xC2\xADOrca-Android;FBAV/\xC2\xAD5.0.0.16.1;FBLC/\xC2\xADtr_TR;FBBV/\xC2\xAD2302400;FBCR/\xC2\xADT-Mobile;FBMF/\xC2\xADsamsung;FBBD/\xC2\xADsamsung;FBDV/\xC2\xADGT-I9300;FBSV/\xC2\xAD4.0.4;FBCA/\xC2\xADarmeabi-v7a:armeabi;F\xC2\xADBDM/\xC2\xAD{density=1.0,width=10\xC2\xAD66,height=552};]
[FBAN/FB4A;FBAV/272.0.0.50.125;FBBV/216845518;FBDM/{density=3.0,width=1080,height=2076};FBLC/en_US;FBRV/217590984;FBCR/AT&amp-T;FBMF/samsung;FBBD/samsung;FBPN/com.facebook.katana;FBDV/SM-G965U;FBSV/8.0.0;FBOP/19;FBCA/armeabi-v7a:armeabi;]
[FBAN/FB4A;FBAV/271.0.0.55.109;FBBV/215365690;FBDM/{density=2.625,width=1080,height=2094};FBLC/en_US;FBRV/216344615;FBCR/Verizon ;FBMF/samsung;FBBD/samsung;FBPN/com.facebook.katana;FBDV/SM-N960U;FBSV/10;FBOP/1;FBCA/arm64-v8a:;]
[FBAN/FB4A;FBAV/272.0.0.50.125;FBBV/216845599;FBDM/{density=2.625,width=1080,height=2094};FBLC/en_US;FBRV/0;FBCR/Sprint;FBMF/samsung;FBBD/samsung;FBPN/com.facebook.katana;FBDV/SM-N950U;FBSV/9;FBOP/19;FBCA/arm64-v8a:;]
[FBAN/FB4A;FBAV/272.0.0.50.125;FBBV/216845599;FBDM/{density=3.0,width=1080,height=2175};FBLC/en_US;FBRV/217753680;FBCR/Sprint;FBMF/samsung;FBBD/samsung;FBPN/com.facebook.katana;FBDV/SM-G965U;FBSV/10;FBOP/19;FBCA/arm64-v8a:;]
[FBAN/FB4A;FBAV/272.0.0.50.125;FBBV/216845599;FBDM/{density=2.625,width=1080,height=2047};FBLC/en_US;FBRV/217790254;FBCR/AT&amp-T;FBMF/samsung;FBBD/samsung;FBPN/com.facebook.katana;FBDV/SM-G975U;FBSV/10;FBOP/19;FBCA/arm64-v8a:;]
[FBAN/FB4A;FBAV/272.0.0.50.125;FBBV/216845599;FBDM/{density=2.625,width=1080,height=2042};FBLC/en_US;FBRV/218008447;FBCR/AT&amp-T;FBMF/samsung;FBBD/samsung;FBPN/com.facebook.katana;FBDV/SM-G973U;FBSV/10;FBOP/19;FBCA/arm64-v8a:;]
[FBAN/FB4A;FBAV/262.0.0.34.117;FBBV/203997166;FBDM/{density=2.25,width=720,height=1172};FBLC/es_LA;FBRV/205643271;FBCR/BITEL;FBMF/motorola;FBBD/motorola;FBPN/com.facebook.katana;FBDV/Moto E (4) Plus;FBSV/7.1.1;FBOP/1;FBCA/armeabi-v7a:armeabi;]
[FBAN/FB4A;FBAV/272.0.0.50.125;FBBV/216845488;FBDM/{density=1.5,width=1200,height=1848};FBLC/en_US;FBRV/217831574;FBCR/;FBMF/samsung;FBBD/samsung;FBPN/com.facebook.katana;FBDV/SM-T510;FBSV/9;FBOP/1;FBCA/armeabi-v7a:armeabi;]
[FBAN/FB4A;FBAV/272.0.0.50.125;FBBV/216845465;FBDM/{density=2.0,width=1536,height=2048};FBLC/en_US;FBRV/218114099;FBCR/;FBMF/samsung;FBBD/samsung;FBPN/com.facebook.katana;FBDV/SM-T713;FBSV/7.0;FBBK/1;FBOP/1;FBCA/armeabi-v7a:armeabi;]
[FBAN/FB4A;FBAV/272.0.0.50.125;FBBV/216845599;FBDM/{density=3.0,width=1080,height=2076};FBLC/en_US;FBRV/217716541;FBCR/Verizon ;FBMF/samsung;FBBD/samsung;FBPN/com.facebook.katana;FBDV/SM-N960U;FBSV/10;FBOP/1;FBCA/arm64-v8a:;]
[FBAN/FB4A;FBAV/273.0.0.39.123;FBBV/218047971;FBDM/{density=2.625,width=1080,height=2094};FBLC/en_US;FBRV/219186427;FBCR/AT&amp-T;FBMF/samsung;FBBD/samsung;FBPN/com.facebook.katana;FBDV/SM-G965U;FBSV/10;FBOP/19;FBCA/arm64-v8a:;]
[FBAN/FB4A;FBAV/268.1.0.54.121;FBBV/211681928;FBDM/{density=4.0,width=1440,height=2368};FBLC/en_US;FBRV/213532798;FBCR/Verizon ;FBMF/motorola;FBBD/motorola;FBPN/com.facebook.katana;FBDV/XT1650;FBSV/8.0.0;FBOP/1;FBCA/armeabi-v7a:armeabi;]
Dalvik/2.1.0 (Linux; U; Android 10; SM-G970U1 Build/QP1A.190711.020) [FBAN/MessengerLite;FBAV/78.0.1.18.236;FBPN/com.facebook.mlite;FBLC/es_MX;FBBV/201616056;FBCR/TELCEL;FBMF/samsung;FBBD/samsung;FBDV/SM-G970U1;FBSV/10;FBCA/arm64-v8a:null;FBDM/{density=3.0,width=1080,height=2020};]
[FBAN/FB4A;FBAV/273.0.0.39.123;FBBV/218047971;FBDM/{density=2.625,width=1080,height=2094};FBLC/en_US;FBRV/219212572;FBCR/cricket;FBMF/samsung;FBBD/samsung;FBPN/com.facebook.katana;FBDV/SM-N950U;FBSV/9;FBOP/1;FBCA/arm64-v8a:;]
[FBAN/FB4A;FBAV/248.1.0.44.116;FBBV/184540683;FBDM/{density=4.0,width=1440,height=2368};FBLC/en_US;FBRV/0;FBCR/Verizon ;FBMF/motorola;FBBD/motorola;FBPN/com.facebook.katana;FBDV/Moto Z (2);FBSV/9;FBOP/1;FBCA/arm64-v8a:;]
[FBAN/FB4A;FBAV/248.1.0.44.116;FBBV/184540788;FBDM/{density=3.0,width=1080,height=2020};FBLC/en_US;FBRV/186600517;FBCR/Verizon ;FBMF/samsung;FBBD/samsung;FBPN/com.facebook.katana;FBDV/SM-G970U;FBSV/10;FBOP/1;FBCA/arm64-v8a:;]
[FBAN/FB4A;FBAV/273.0.0.39.123;FBBV/218047971;FBDM/{density=2.625,width=1080,height=2047};FBLC/en_US;FBRV/219517567;FBCR/Verizon ;FBMF/samsung;FBBD/samsung;FBPN/com.facebook.katana;FBDV/SM-G975U;FBSV/10;FBOP/1;FBCA/arm64-v8a:;]
[FBAN/FB4A;FBAV/273.0.0.39.123;FBBV/218047962;FBDM/{density=3.5,width=1440,height=2935};FBLC/en_US;FBRV/0;FBCR/Verizon ;FBMF/samsung;FBBD/samsung;FBPN/com.facebook.katana;FBDV/SM-G986U;FBSV/10;FBOP/1;FBCA/arm64-v8a:;]
[FBAN/FB4A;FBAV/273.0.0.39.123;FBBV/218047971;FBDM/{density=2.625,width=1080,height=2342};FBLC/en_US;FBRV/219557400;FBCR/Verizon Wireless;FBMF/LGE;FBBD/lge;FBPN/com.facebook.katana;FBDV/LM-V600;FBSV/10;FBOP/1;FBCA/arm64-v8a:;]
[FBAN/FB4A;FBAV/274.0.0.46.119;FBBV/219237478;FBDM/{density=4.5,width=1440,height=2711};FBLC/en_US;FBRV/219846921;FBCR/cricket;FBMF/samsung;FBBD/samsung;FBPN/com.facebook.katana;FBDV/SM-N975U1;FBSV/10;FBOP/19;FBCA/arm64-v8a:;]
[FBAN/FB4A;FBAV/221.0.0.48.102;FBBV/154683426;FBDM/{density=2.0,width=720,height=1280};FBLC/en_US;FBRV/0;FBCR/VodaCom-SA;FBMF/HMD Global;FBBD/Nokia;FBPN/com.facebook.katana;FBDV/TA-1024;FBSV/9;FBOP/1;FBCA/armeabi-v7a:armeabi;]
[FBAN/FB4A;FBAV/266.0.0.56.124;FBBV/209027753;FBDM/{density=2.0,width=720,height=1412};FBLC/en_US;FBRV/0;FBCR/Jio 4G;FBMF/Realme;FBBD/Realme;FBPN/com.facebook.katana;FBDV/RMX1945;FBSV/9;FBOP/1;FBCA/armeabi-v7a:armeabi;]
[FBAN/FB4A;FBAV/274.0.0.46.119;FBBV/219237478;FBDM/{density=3.0,width=1080,height=2192};FBLC/en_US;FBRV/220725958;FBCR/Verizon ;FBMF/motorola;FBBD/motorola;FBPN/com.facebook.katana;FBDV/moto z4;FBSV/10;FBOP/1;FBCA/arm64-v8a:;]
[FBAN/FB4A;FBAV/273.0.0.39.123;FBBV/218047955;FBDM/{density=2.0,width=720,height=1344};FBLC/en_US;FBRV/0;FBCR/airtel;FBMF/LAVA;FBBD/LAVA;FBPN/com.facebook.katana;FBDV/Z61_2GB;FBSV/8.1.0;FBOP/1;FBCA/armeabi-v7a:armeabi;]
[FBAN/FB4A;FBAV/274.0.0.46.119;FBBV/219237403;FBDM/{density=4.5,width=1440,height=2744};FBLC/en_US;FBRV/221225384;FBCR/Verizon ;FBMF/samsung;FBBD/samsung;FBPN/com.facebook.katana;FBDV/SM-N950U;FBSV/9;FBOP/1;FBCA/arm64-v8a:;]
[FBAN/FB4A;FBAV/273.0.0.39.123;FBBV/218047954;FBDM/{density=1.5,width=480,height=888};FBLC/en_US;FBRV/219557400;FBCR/HOME;FBMF/TCL;FBBD/TCL;FBPN/com.facebook.katana;FBDV/A501DL;FBSV/8.1.0;FBOP/19;FBCA/armeabi-v7a:armeabi;]
[FBAN/FB4A;FBAV/274.0.0.46.119;FBBV/219237478;FBDM/{density=4.5,width=1440,height=2744};FBLC/en_US;FBRV/221258992;FBCR/Home;FBMF/samsung;FBBD/samsung;FBPN/com.facebook.katana;FBDV/SM-G965U1;FBSV/10;FBOP/19;FBCA/arm64-v8a:;]
[FBAN/FB4A;FBAV/269.0.0.50.127;FBBV/212783074;FBDM/{density=2.625,width=1080,height=2138};FBLC/en_US;FBRV/213981597;FBCR/Sprint;FBMF/LGE;FBBD/lge;FBPN/com.facebook.katana;FBDV/LM-G850;FBSV/10;FBOP/19;FBCA/arm64-v8a:;]
[FBAN/FB4A;FBAV/274.0.0.46.119;FBBV/219237478;FBDM/{density=2.625,width=1080,height=2042};FBLC/en_US;FBRV/221258992;FBCR/Sprint;FBMF/samsung;FBBD/samsung;FBPN/com.facebook.katana;FBDV/SM-G973U;FBSV/10;FBOP/19;FBCA/arm64-v8a:;]
[FBAN/FB4A;FBAV/274.0.0.46.119;FBBV/219237478;FBDM/{density=3.0,width=1080,height=2076};FBLC/en_US;FBRV/221654980;FBCR/T-Mobile;FBMF/samsung;FBBD/samsung;FBPN/com.facebook.katana;FBDV/SM-N960U;FBSV/10;FBOP/1;FBCA/arm64-v8a:;]
[FBAN/FB4A;FBAV/274.0.0.46.119;FBBV/219237482;FBDM/{density=3.5,width=1440,height=2984};FBLC/en_US;FBRV/221258992;FBCR/Verizon;FBMF/Google;FBBD/google;FBPN/com.facebook.katana;FBDV/Pixel 4 XL;FBSV/10;FBOP/1;FBCA/arm64-v8a:;]
[FBAN/FB4A;FBAV/274.0.0.46.119;FBBV/219237478;FBDM/{density=2.625,width=1080,height=2094};FBLC/en_US;FBRV/221727328;FBCR/AT&amp-T;FBMF/samsung;FBBD/samsung;FBPN/com.facebook.katana;FBDV/SM-G965U;FBSV/10;FBOP/19;FBCA/arm64-v8a:;]
[FBAN/FB4A;FBAV/273.0.0.39.123;FBBV/218047971;FBDM/{density=2.625,width=1080,height=2042};FBLC/en_US;FBRV/219312803;FBCR/Verizon ;FBMF/samsung;FBBD/samsung;FBPN/com.facebook.katana;FBDV/SM-G973U;FBSV/10;FBOP/1;FBCA/arm64-v8a:;]
[FBAN/FB4A;FBAV/262.0.0.34.117;FBBV/203997198;FBDM/{density=3.375,width=1080,height=2058};FBLC/en_US;FBRV/204707002;FBCR/Verizon ;FBMF/samsung;FBBD/samsung;FBPN/com.facebook.katana;FBDV/SM-G955U;FBSV/9;FBOP/1;FBCA/arm64-v8a:;]
[FBAN/FB4A;FBAV/275.0.0.49.127;FBBV/221372633;FBDM/{density=2.625,width=1080,height=2094};FBLC/en_US;FBRV/222706988;FBCR/Verizon ;FBMF/samsung;FBBD/samsung;FBPN/com.facebook.katana;FBDV/SM-G965U;FBSV/10;FBOP/1;FBCA/arm64-v8a:;]
[FBAN/FB4A;FBAV/275.0.0.49.127;FBBV/221372633;FBDM/{density=2.625,width=1080,height=2094};FBLC/en_US;FBRV/224352632;FBCR/cricket;FBMF/samsung;FBBD/samsung;FBPN/com.facebook.katana;FBDV/SM-N960U1;FBSV/9;FBOP/19;FBCA/arm64-v8a:;]
[FBAN/FB4A;FBAV/259.0.0.36.115;FBBV/200359504;FBDM/{density=1.3312501,width=1280,height=736};FBLC/ru_RU;FBRV/0;FBCR/MTS RUS;FBMF/LENOVO;FBBD/Lenovo;FBPN/com.facebook.katana;FBDV/Lenovo TB3-850M;FBSV/6.0;FBOP/1;FBCA/armeabi-v7a:armeabi;]
[FBAN/FB4A;FBAV/275.0.0.49.127;FBBV/221372633;FBDM/{density=2.625,width=1080,height=2094};FBLC/en_US;FBRV/225303678;FBCR/T-Mobile;FBMF/samsung;FBBD/samsung;FBPN/com.facebook.katana;FBDV/SM-N960U;FBSV/10;FBOP/1;FBCA/arm64-v8a:;]
[FBAN/FB4A;FBAV/275.0.0.49.127;FBBV/221372624;FBDM/{density=2.25,width=720,height=1359};FBLC/en_US;FBRV/225615770;FBCR/T-Mobile;FBMF/motorola;FBBD/motorola;FBPN/com.facebook.katana;FBDV/moto g(7) power;FBSV/9;FBOP/1;FBCA/arm64-v8a:;]
[FBAN/FB4A;FBAV/275.0.0.49.127;FBBV/221372569;FBDM/{density=2.0,width=720,height=1402};FBLC/en_US;FBRV/225615770;FBCR/Spectrum;FBMF/samsung;FBBD/samsung;FBPN/com.facebook.katana;FBDV/SM-A102U;FBSV/9;FBOP/19;FBCA/armeabi-v7a:armeabi;]
[FBAN/FB4A;FBAV/275.0.0.49.127;FBBV/221372633;FBDM/{density=3.0,width=1080,height=2020};FBLC/en_US;FBRV/225844509;FBCR/Sprint;FBMF/samsung;FBBD/samsung;FBPN/com.facebook.katana;FBDV/SM-G970U;FBSV/10;FBOP/19;FBCA/arm64-v8a:;]
[FBAN/FB4A;FBAV/276.0.0.44.127;FBBV/225129387;FBDM/{density=2.625,width=1080,height=2181};FBLC/en_US;FBRV/0;FBCR/AT&amp-T;FBMF/samsung;FBBD/samsung;FBPN/com.facebook.katana;FBDV/SM-N960U;FBSV/10;FBOP/19;FBCA/arm64-v8a:;]
[FBAN/FB4A;FBAV/274.0.0.46.119;FBBV/219237439;FBDM/{density=1.7,width=720,height=1469};FBLC/hi_IN;FBRV/0;FBCR/Jio 4G;FBMF/realme;FBBD/realme;FBPN/com.facebook.katana;FBDV/RMX1911;FBSV/9;FBOP/1;FBCA/armeabi-v7a:armeabi;]
[FBAN/FB4A;FBAV/275.0.0.49.127;FBBV/221372633;FBDM/{density=2.625,width=1080,height=2064};FBLC/en_US;FBRV/225421328;FBCR/Verizon ;FBMF/samsung;FBBD/samsung;FBPN/com.facebook.katana;FBDV/SM-N970U;FBSV/10;FBOP/1;FBCA/arm64-v8a:;]
[FBAN/FB4A;FBAV/275.0.0.49.127;FBBV/221372471;FBDM/{density=1.0,width=1280,height=752};FBLC/en_GB;FBRV/225933467;FBCR/;FBMF/LENOVO;FBBD/Lenovo;FBPN/com.facebook.katana;FBDV/Lenovo TB-X104F;FBSV/8.1.0;FBOP/1;FBCA/armeabi-v7a:armeabi;]
[FBAN/FB4A;FBAV/276.0.0.44.127;FBBV/225129392;FBDM/{density=4.0,width=1440,height=2768};FBLC/en_US;FBRV/226498918;FBCR/Sprint;FBMF/samsung;FBBD/samsung;FBPN/com.facebook.katana;FBDV/SM-G965U;FBSV/10;FBOP/19;FBCA/arm64-v8a:;]
[FBAN/FB4A;FBAV/276.0.0.44.127;FBBV/225129304;FBDM/{density=2.625,width=1080,height=2094};FBLC/en_US;FBRV/226498918;FBCR/T-Mobile;FBMF/samsung;FBBD/samsung;FBPN/com.facebook.katana;FBDV/SM-N950U;FBSV/8.0.0;FBOP/1;FBCA/armeabi-v7a:armeabi;]
[FBAN/FB4A;FBAV/275.0.0.49.127;FBBV/221372633;FBDM/{density=2.625,width=1080,height=2069};FBLC/en_US;FBRV/0;FBCR/Sprint;FBMF/samsung;FBBD/samsung;FBPN/com.facebook.katana;FBDV/SM-N975U;FBSV/10;FBOP/19;FBCA/arm64-v8a:;]
[FBAN/FB4A;FBAV/276.0.0.44.127;FBBV/225129387;FBDM/{density=3.0,width=1080,height=1792};FBLC/en_US;FBRV/226498918;FBCR/TNT;FBMF/HUAWEI;FBBD/HUAWEI;FBPN/com.facebook.katana;FBDV/VTR-L29;FBSV/9;FBOP/1;FBCA/arm64-v8a:;]
[FBAN/FB4A;FBAV/276.0.0.44.127;FBBV/225129387;FBDM/{density=2.625,width=1080,height=2094};FBLC/en_US;FBRV/226498918;FBCR/Sprint;FBMF/samsung;FBBD/samsung;FBPN/com.facebook.katana;FBDV/SM-N950U;FBSV/9;FBOP/19;FBCA/arm64-v8a:;]
[FBAN/FB4A;FBAV/276.0.0.44.127;FBBV/225129309;FBDM/{density=4.0,width=1440,height=2560};FBLC/uk_UA;FBRV/226498918;FBCR/KYIVSTAR;FBMF/samsung;FBBD/samsung;FBPN/com.facebook.katana;FBDV/SM-G935F;FBSV/8.0.0;FBOP/19;FBCA/armeabi-v7a:armeabi;]
[FBAN/FB4A;FBAV/276.0.0.44.127;FBBV/225129387;FBDM/{density=4.0,width=1440,height=2768};FBLC/en_US;FBRV/227103212;FBCR/Verizon ;FBMF/samsung;FBBD/samsung;FBPN/com.facebook.katana;FBDV/SM-N950U;FBSV/9;FBOP/1;FBCA/arm64-v8a:;]
[FBAN/FB4A;FBAV/276.0.0.44.127;FBBV/225129304;FBDM/{density=3.0,width=1080,height=1794};FBLC/it_IT;FBRV/227302326;FBCR/vodafone IT;FBMF/HUAWEI;FBBD/HUAWEI;FBPN/com.facebook.katana;FBDV/VIE-L09;FBSV/7.0;FBOP/19;FBCA/armeabi-v7a:armeabi;]
[FBAN/FB4A;FBAV/276.0.0.44.127;FBBV/225129387;FBDM/{density=2.625,width=1080,height=2094};FBLC/en_US;FBRV/226498918;FBCR/Verizon ;FBMF/samsung;FBBD/samsung;FBPN/com.facebook.katana;FBDV/SM-N960U;FBSV/10;FBOP/1;FBCA/arm64-v8a:;]
[FBAN/FB4A;FBAV/276.0.0.44.127;FBBV/225129304;FBDM/{density=3.0,width=1080,height=1920};FBLC/en_GB;FBRV/227665120;FBCR/Airtel-Stay Home | airtel;FBMF/samsung;FBBD/samsung;FBPN/com.facebook.katana;FBDV/SM-G610F;FBSV/8.1.0;FBOP/19;FBCA/armeabi-v7a:armeabi;]
[FBAN/FB4A;FBAV/276.0.0.44.127;FBBV/225129392;FBDM/{density=3.5,width=1440,height=2759};FBLC/en_US;FBRV/227554369;FBCR/Sprint;FBMF/samsung;FBBD/samsung;FBPN/com.facebook.katana;FBDV/SM-N975U;FBSV/10;FBOP/19;FBCA/arm64-v8a:;]
